
     RDKit          3D

 28 29  0  0  0  0  0  0  0  0999 V2000
   16.0650   10.4430   41.7340 C   0  0  0  0  0  0  0  0  0  0  0  0
   14.6790   10.3640   41.1950 C   0  0  0  0  0  0  0  0  0  0  0  0
   13.7230    9.4200   41.4360 C   0  0  0  0  0  0  0  0  0  0  0  0
   13.8490    8.3110   42.2170 N   0  0  0  0  0  0  0  0  0  0  0  0
   12.8870    7.6860   42.9770 C   0  0  0  0  0  0  0  0  0  0  0  0
   12.2990    5.8630   44.1840 C   0  0  0  0  0  0  0  0  0  0  0  0
   11.0630    6.4090   44.4870 C   0  0  0  0  0  0  0  0  0  0  0  0
   10.8500    7.6710   43.9750 C   0  0  0  0  0  0  0  0  0  0  0  0
   12.6410    9.8660   40.6630 C   0  0  0  0  0  0  0  0  0  0  0  0
   14.8220   12.4870   39.8270 C   0  0  0  0  0  0  0  0  0  0  0  0
   13.2270    6.4710   43.4390 N   0  0  0  0  0  0  0  0  0  0  0  0
   10.0450    5.6920   45.3310 C   0  0  0  0  0  0  0  0  0  0  0  0
   11.7350    8.3380   43.2210 N   0  0  0  0  0  0  0  0  0  0  0  0
   12.9170   10.9890   40.0220 N   0  0  0  0  0  0  0  0  0  0  0  0
   14.1910   11.2860   40.3650 N   0  0  0  0  0  0  0  0  0  0  0  0
   16.0315   10.4411   42.8335 H   0  0  0  0  0  0  0  0  0  0  0  0
   16.6447    9.5764   41.3833 H   0  0  0  0  0  0  0  0  0  0  0  0
   16.5425   11.3698   41.3833 H   0  0  0  0  0  0  0  0  0  0  0  0
   14.7864    7.8848   42.2419 H   0  0  0  0  0  0  0  0  0  0  0  0
   12.5320    4.8644   44.5822 H   0  0  0  0  0  0  0  0  0  0  0  0
    9.8919    8.1624   44.1997 H   0  0  0  0  0  0  0  0  0  0  0  0
   11.6757    9.3427   40.5977 H   0  0  0  0  0  0  0  0  0  0  0  0
   15.1583   13.1272   40.6559 H   0  0  0  0  0  0  0  0  0  0  0  0
   15.6867   12.2018   39.2098 H   0  0  0  0  0  0  0  0  0  0  0  0
   14.0965   13.0373   39.2098 H   0  0  0  0  0  0  0  0  0  0  0  0
   10.2726    5.8523   46.3952 H   0  0  0  0  0  0  0  0  0  0  0  0
    9.0418    6.0840   45.1075 H   0  0  0  0  0  0  0  0  0  0  0  0
   10.0762    4.6154   45.1075 H   0  0  0  0  0  0  0  0  0  0  0  0
  2  1  1  0
  3  2  2  0
  4  3  1  0
  5  4  1  0
  7  6  2  0
  8  7  1  0
  9  3  1  0
 11  5  2  0
 11  6  1  0
 12  7  1  0
 13  8  2  0
 13  5  1  0
 14  9  2  0
 15  2  1  0
 15 14  1  0
 15 10  1  0
  1 16  1  0
  1 17  1  0
  1 18  1  0
  4 19  1  0
  6 20  1  0
  8 21  1  0
  9 22  1  0
 10 23  1  0
 10 24  1  0
 10 25  1  0
 12 26  1  0
 12 27  1  0
 12 28  1  0
M  END
