
     RDKit          3D

 15 16  0  0  0  0  0  0  0  0999 V2000
   16.0650   10.4430   41.7340 C   0  0  0  0  0  0  0  0  0  0  0  0
   14.6790   10.3640   41.1950 C   0  0  0  0  0  0  0  0  0  0  0  0
   13.7230    9.4200   41.4360 C   0  0  0  0  0  0  0  0  0  0  0  0
   13.8490    8.3110   42.2170 N   0  0  0  0  0  0  0  0  0  0  0  0
   12.8870    7.6860   42.9770 C   0  0  0  0  0  0  0  0  0  0  0  0
   12.2990    5.8630   44.1840 C   0  0  0  0  0  0  0  0  0  0  0  0
   11.0630    6.4090   44.4870 C   0  0  0  0  0  0  0  0  0  0  0  0
   10.8500    7.6710   43.9750 C   0  0  0  0  0  0  0  0  0  0  0  0
   12.6410    9.8660   40.6630 C   0  0  0  0  0  0  0  0  0  0  0  0
   14.8220   12.4870   39.8270 C   0  0  0  0  0  0  0  0  0  0  0  0
   13.2270    6.4710   43.4390 N   0  0  0  0  0  0  0  0  0  0  0  0
   10.0450    5.6920   45.3310 C   0  0  0  0  0  0  0  0  0  0  0  0
   11.7350    8.3380   43.2210 N   0  0  0  0  0  0  0  0  0  0  0  0
   12.9170   10.9890   40.0220 N   0  0  0  0  0  0  0  0  0  0  0  0
   14.1910   11.2860   40.3650 N   0  0  0  0  0  0  0  0  0  0  0  0
  2  1  1  0
  3  2  2  0
  4  3  1  0
  5  4  1  0
  7  6  2  0
  8  7  1  0
  9  3  1  0
 11  5  2  0
 11  6  1  0
 12  7  1  0
 13  8  2  0
 13  5  1  0
 14  9  2  0
 15  2  1  0
 15 14  1  0
 15 10  1  0
M  END
$$$$

     RDKit          3D

 16 17  0  0  0  0  0  0  0  0999 V2000
   14.5560   13.3470   39.4350 C   0  0  0  0  0  0  0  0  0  0  0  0
   15.4510   12.3450   40.1430 C   0  0  0  0  0  0  0  0  0  0  0  0
   14.6970   11.2320   40.6960 N   0  0  0  0  0  0  0  0  0  0  0  0
   13.4510   11.0100   40.2370 N   0  0  0  0  0  0  0  0  0  0  0  0
   13.0410    9.9490   40.9370 C   0  0  0  0  0  0  0  0  0  0  0  0
   14.0220    9.4920   41.8390 C   0  0  0  0  0  0  0  0  0  0  0  0
   13.9800    8.4620   42.7070 N   0  0  0  0  0  0  0  0  0  0  0  0
   12.9050    7.8300   43.3320 C   0  0  0  0  0  0  0  0  0  0  0  0
   12.8920    6.4900   43.2310 N   0  0  0  0  0  0  0  0  0  0  0  0
   11.8730    5.8360   43.8230 C   0  0  0  0  0  0  0  0  0  0  0  0
   10.8670    6.4590   44.5250 C   0  0  0  0  0  0  0  0  0  0  0  0
    9.7320    5.7160   45.1380 C   0  0  0  0  0  0  0  0  0  0  0  0
   10.9610    7.8310   44.5570 C   0  0  0  0  0  0  0  0  0  0  0  0
   11.9610    8.5280   43.9810 N   0  0  0  0  0  0  0  0  0  0  0  0
   15.0970   10.3410   41.6650 C   0  0  0  0  0  0  0  0  0  0  0  0
   16.4310   10.3910   42.3110 C   0  0  0  0  0  0  0  0  0  0  0  0
  1  2  1  0
  2  3  1  0
  3  4  1  0
  4  5  2  0
  5  6  1  0
  6  7  1  0
  7  8  1  0
  8  9  2  0
  9 10  1  0
 10 11  2  0
 11 12  1  0
 11 13  1  0
 13 14  2  0
  6 15  2  0
 15 16  1  0
 15  3  1  0
 14  8  1  0
M  END
$$$$

     RDKit          3D

 20 21  0  0  0  0  0  0  0  0999 V2000
   17.5370   15.1770   38.4140 C   0  0  0  0  0  0  0  0  0  0  0  0
   16.7780   13.9900   38.9740 C   0  0  0  0  0  0  0  0  0  0  0  0
   15.3680   14.2600   38.9760 O   0  0  0  0  0  0  0  0  0  0  0  0
   14.5990   13.4150   39.7280 C   0  0  0  0  0  0  0  0  0  0  0  0
   13.8480   13.7780   40.6240 O   0  0  0  0  0  0  0  0  0  0  0  0
   14.8990   11.9940   39.3390 C   0  0  0  0  0  0  0  0  0  0  0  0
   14.2250   11.0360   40.1960 N   0  0  0  0  0  0  0  0  0  0  0  0
   12.9790   10.6410   39.8590 N   0  0  0  0  0  0  0  0  0  0  0  0
   12.6730    9.7330   40.7880 C   0  0  0  0  0  0  0  0  0  0  0  0
   13.7260    9.5190   41.6980 C   0  0  0  0  0  0  0  0  0  0  0  0
   13.7960    8.6830   42.7520 N   0  0  0  0  0  0  0  0  0  0  0  0
   12.8170    7.9130   43.3810 C   0  0  0  0  0  0  0  0  0  0  0  0
   12.9740    6.5830   43.2640 N   0  0  0  0  0  0  0  0  0  0  0  0
   12.0500    5.7990   43.8560 C   0  0  0  0  0  0  0  0  0  0  0  0
   10.9670    6.2820   44.5510 C   0  0  0  0  0  0  0  0  0  0  0  0
    9.9830    5.3930   45.2280 C   0  0  0  0  0  0  0  0  0  0  0  0
   10.9040    7.6540   44.6260 C   0  0  0  0  0  0  0  0  0  0  0  0
   11.8010    8.4780   44.0510 N   0  0  0  0  0  0  0  0  0  0  0  0
   14.7350   10.3670   41.2880 C   0  0  0  0  0  0  0  0  0  0  0  0
   16.0980   10.6100   41.8210 C   0  0  0  0  0  0  0  0  0  0  0  0
  1  2  1  0
  2  3  1  0
  3  4  1  0
  4  5  2  0
  4  6  1  0
  6  7  1  0
  7  8  1  0
  8  9  2  0
  9 10  1  0
 10 11  1  0
 11 12  1  0
 12 13  2  0
 13 14  1  0
 14 15  2  0
 15 16  1  0
 15 17  1  0
 17 18  2  0
 10 19  2  0
 19 20  1  0
 19  7  1  0
 18 12  1  0
M  END
$$$$

     RDKit          3D

 18 19  0  0  0  0  0  0  0  0999 V2000
    9.9390    5.3700   45.2270 C   0  0  0  0  0  0  0  0  0  0  0  0
   10.9210    6.2710   44.5610 C   0  0  0  0  0  0  0  0  0  0  0  0
   12.0030    5.8000   43.8510 C   0  0  0  0  0  0  0  0  0  0  0  0
   12.9330    6.5930   43.2780 N   0  0  0  0  0  0  0  0  0  0  0  0
   12.7850    7.9200   43.4310 C   0  0  0  0  0  0  0  0  0  0  0  0
   13.7900    8.7040   42.8610 N   0  0  0  0  0  0  0  0  0  0  0  0
   13.7800    9.5010   41.7740 C   0  0  0  0  0  0  0  0  0  0  0  0
   12.7600    9.7260   40.8260 C   0  0  0  0  0  0  0  0  0  0  0  0
   13.1200   10.6090   39.8880 N   0  0  0  0  0  0  0  0  0  0  0  0
   14.3810   10.9470   40.2410 N   0  0  0  0  0  0  0  0  0  0  0  0
   15.0860   11.9240   39.4320 C   0  0  0  0  0  0  0  0  0  0  0  0
   14.5770   13.3140   39.7180 C   0  0  0  0  0  0  0  0  0  0  0  0
   14.9600   14.2820   38.8270 N   0  0  0  0  0  0  0  0  0  0  0  0
   13.8960   13.5900   40.7030 O   0  0  0  0  0  0  0  0  0  0  0  0
   14.8300   10.3020   41.3720 C   0  0  0  0  0  0  0  0  0  0  0  0
   16.1860   10.5210   41.9430 C   0  0  0  0  0  0  0  0  0  0  0  0
   11.7640    8.4750   44.1050 N   0  0  0  0  0  0  0  0  0  0  0  0
   10.8600    7.6420   44.6560 C   0  0  0  0  0  0  0  0  0  0  0  0
  1  2  1  0
  2  3  2  0
  3  4  1  0
  4  5  2  0
  5  6  1  0
  6  7  1  0
  7  8  1  0
  8  9  2  0
  9 10  1  0
 10 11  1  0
 11 12  1  0
 12 13  1  0
 12 14  2  0
 10 15  1  0
 15 16  1  0
  5 17  1  0
 17 18  2  0
 18  2  1  0
 15  7  2  0
M  END
$$$$

     RDKit          3D

 18 19  0  0  0  0  0  0  0  0999 V2000
    9.8540    5.3930   45.1770 C   0  0  0  0  0  0  0  0  0  0  0  0
   10.9000    6.2690   44.5850 C   0  0  0  0  0  0  0  0  0  0  0  0
   11.9770    5.7760   43.8870 C   0  0  0  0  0  0  0  0  0  0  0  0
   12.9200    6.5500   43.3130 N   0  0  0  0  0  0  0  0  0  0  0  0
   12.7820    7.8830   43.4340 C   0  0  0  0  0  0  0  0  0  0  0  0
   13.7840    8.6430   42.8340 N   0  0  0  0  0  0  0  0  0  0  0  0
   13.7600    9.4740   41.7730 C   0  0  0  0  0  0  0  0  0  0  0  0
   12.7460    9.6940   40.8230 C   0  0  0  0  0  0  0  0  0  0  0  0
   13.0990   10.5840   39.8940 N   0  0  0  0  0  0  0  0  0  0  0  0
   14.3220   11.0170   40.3060 N   0  0  0  0  0  0  0  0  0  0  0  0
   15.0290   11.9610   39.4630 C   0  0  0  0  0  0  0  0  0  0  0  0
   14.6180   13.3970   39.6950 C   0  0  0  0  0  0  0  0  0  0  0  0
   13.9080   13.6330   40.7120 O   0  0  0  0  0  0  0  0  0  0  0  0
   15.0070   14.2160   38.8060 O   0  0  0  0  0  0  0  0  0  0  0  0
   14.7960   10.3020   41.3910 C   0  0  0  0  0  0  0  0  0  0  0  0
   16.1560   10.4910   41.9550 C   0  0  0  0  0  0  0  0  0  0  0  0
   11.7520    8.4550   44.0780 N   0  0  0  0  0  0  0  0  0  0  0  0
   10.8350    7.6420   44.6330 C   0  0  0  0  0  0  0  0  0  0  0  0
  1  2  1  0
  2  3  2  0
  3  4  1  0
  4  5  2  0
  5  6  1  0
  6  7  1  0
  7  8  1  0
  8  9  2  0
  9 10  1  0
 10 11  1  0
 11 12  1  0
 12 13  2  0
 12 14  1  0
 10 15  1  0
 15 16  1  0
  5 17  1  0
 17 18  2  0
 18  2  1  0
 15  7  2  0
M  CHG  1  14  -1
M  END
$$$$

     RDKit          3D

 16 17  0  0  0  0  0  0  0  0999 V2000
   16.3540   12.0870   42.0520 C   0  0  0  0  0  0  0  0  0  0  0  0
   16.0740   10.6110   41.8140 C   0  0  0  0  0  0  0  0  0  0  0  0
   14.6980   10.3910   41.2820 C   0  0  0  0  0  0  0  0  0  0  0  0
   13.6920    9.5360   41.6870 C   0  0  0  0  0  0  0  0  0  0  0  0
   13.7830    8.6700   42.7150 N   0  0  0  0  0  0  0  0  0  0  0  0
   12.8130    7.9000   43.3560 C   0  0  0  0  0  0  0  0  0  0  0  0
   12.9510    6.5710   43.2130 N   0  0  0  0  0  0  0  0  0  0  0  0
   12.0370    5.7870   43.8180 C   0  0  0  0  0  0  0  0  0  0  0  0
   10.9920    6.2700   44.5720 C   0  0  0  0  0  0  0  0  0  0  0  0
    9.9750    5.3830   45.2000 C   0  0  0  0  0  0  0  0  0  0  0  0
   10.9290    7.6410   44.6450 C   0  0  0  0  0  0  0  0  0  0  0  0
   11.8190    8.4650   44.0580 N   0  0  0  0  0  0  0  0  0  0  0  0
   12.6210    9.7840   40.8050 C   0  0  0  0  0  0  0  0  0  0  0  0
   12.9140   10.7240   39.9030 N   0  0  0  0  0  0  0  0  0  0  0  0
   14.1780   11.0720   40.2060 N   0  0  0  0  0  0  0  0  0  0  0  0
   14.8290   12.0890   39.4120 C   0  0  0  0  0  0  0  0  0  0  0  0
  1  2  1  0
  2  3  1  0
  3  4  2  0
  4  5  1  0
  5  6  1  0
  6  7  2  0
  7  8  1  0
  8  9  2  0
  9 10  1  0
  9 11  1  0
 11 12  2  0
  4 13  1  0
 13 14  2  0
 14 15  1  0
 15 16  1  0
 15  3  1  0
 12  6  1  0
M  END
$$$$

     RDKit          3D

 17 18  0  0  0  0  0  0  0  0999 V2000
   17.4960   12.8040   41.5730 C   0  0  0  0  0  0  0  0  0  0  0  0
   16.1730   12.2500   42.0770 C   0  0  0  0  0  0  0  0  0  0  0  0
   16.0240   10.7660   41.7420 C   0  0  0  0  0  0  0  0  0  0  0  0
   14.6650   10.4600   41.2050 C   0  0  0  0  0  0  0  0  0  0  0  0
   13.7100    9.5500   41.6130 C   0  0  0  0  0  0  0  0  0  0  0  0
   13.8430    8.7090   42.6580 N   0  0  0  0  0  0  0  0  0  0  0  0
   12.9230    7.8650   43.2800 C   0  0  0  0  0  0  0  0  0  0  0  0
   13.0190    6.5300   43.1870 N   0  0  0  0  0  0  0  0  0  0  0  0
   12.0820    5.7950   43.8190 C   0  0  0  0  0  0  0  0  0  0  0  0
   11.0400    6.3370   44.5350 C   0  0  0  0  0  0  0  0  0  0  0  0
   10.0400    5.5020   45.2550 C   0  0  0  0  0  0  0  0  0  0  0  0
   11.0370    7.7120   44.5840 C   0  0  0  0  0  0  0  0  0  0  0  0
   11.9520    8.4880   43.9690 N   0  0  0  0  0  0  0  0  0  0  0  0
   12.6360    9.7160   40.7170 C   0  0  0  0  0  0  0  0  0  0  0  0
   12.8790   10.6610   39.8040 N   0  0  0  0  0  0  0  0  0  0  0  0
   14.1100   11.1030   40.1240 N   0  0  0  0  0  0  0  0  0  0  0  0
   14.7010   12.1520   39.3270 C   0  0  0  0  0  0  0  0  0  0  0  0
  1  2  1  0
  2  3  1  0
  3  4  1  0
  4  5  2  0
  5  6  1  0
  6  7  1  0
  7  8  2  0
  8  9  1  0
  9 10  2  0
 10 11  1  0
 10 12  1  0
 12 13  2  0
  5 14  1  0
 14 15  2  0
 15 16  1  0
 16 17  1  0
 16  4  1  0
 13  7  1  0
M  END
$$$$

     RDKit          3D

 16 17  0  0  0  0  0  0  0  0999 V2000
   10.1140    4.5320   45.1560 C   0  0  0  0  0  0  0  0  0  0  0  0
   10.0250    6.0390   45.3400 C   0  0  0  0  0  0  0  0  0  0  0  0
   11.1100    6.7570   44.6030 C   0  0  0  0  0  0  0  0  0  0  0  0
   12.0570    6.1040   43.8480 C   0  0  0  0  0  0  0  0  0  0  0  0
   13.0340    6.7300   43.1610 N   0  0  0  0  0  0  0  0  0  0  0  0
   13.0670    8.0720   43.2240 C   0  0  0  0  0  0  0  0  0  0  0  0
   14.0950    8.6750   42.4990 N   0  0  0  0  0  0  0  0  0  0  0  0
   14.0760    9.6740   41.5960 C   0  0  0  0  0  0  0  0  0  0  0  0
   13.0980   10.0020   40.6360 C   0  0  0  0  0  0  0  0  0  0  0  0
   13.4360   11.0740   39.9120 N   0  0  0  0  0  0  0  0  0  0  0  0
   14.6360   11.4260   40.4100 N   0  0  0  0  0  0  0  0  0  0  0  0
   15.3180   12.5710   39.8530 C   0  0  0  0  0  0  0  0  0  0  0  0
   15.0700   10.6180   41.4350 C   0  0  0  0  0  0  0  0  0  0  0  0
   16.3610   10.8320   42.1320 C   0  0  0  0  0  0  0  0  0  0  0  0
   12.1830    8.7970   43.9270 N   0  0  0  0  0  0  0  0  0  0  0  0
   11.2260    8.1280   44.5970 C   0  0  0  0  0  0  0  0  0  0  0  0
  1  2  1  0
  2  3  1  0
  3  4  2  0
  4  5  1  0
  5  6  2  0
  6  7  1  0
  7  8  1  0
  8  9  1  0
  9 10  2  0
 10 11  1  0
 11 12  1  0
 11 13  1  0
 13 14  1  0
  6 15  1  0
 15 16  2  0
 16  3  1  0
 13  8  2  0
M  END
$$$$

     RDKit          3D

 18 19  0  0  0  0  0  0  0  0999 V2000
    8.3470    8.2450   46.7930 C   0  0  0  0  0  0  0  0  0  0  0  0
    9.5040    7.3360   46.4070 C   0  0  0  0  0  0  0  0  0  0  0  0
    9.1460    6.3220   45.3180 C   0  0  0  0  0  0  0  0  0  0  0  0
   10.3570    5.5470   44.7910 C   0  0  0  0  0  0  0  0  0  0  0  0
   11.3720    6.4580   44.1750 C   0  0  0  0  0  0  0  0  0  0  0  0
   12.6660    6.0650   43.9160 C   0  0  0  0  0  0  0  0  0  0  0  0
   13.5940    6.8600   43.3470 N   0  0  0  0  0  0  0  0  0  0  0  0
   13.2150    8.1070   43.0170 C   0  0  0  0  0  0  0  0  0  0  0  0
   14.2090    8.8940   42.4320 N   0  0  0  0  0  0  0  0  0  0  0  0
   14.1420    9.8470   41.4830 C   0  0  0  0  0  0  0  0  0  0  0  0
   13.1540   10.0780   40.5050 C   0  0  0  0  0  0  0  0  0  0  0  0
   13.4380   11.1310   39.7340 N   0  0  0  0  0  0  0  0  0  0  0  0
   14.6090   11.5760   40.2250 N   0  0  0  0  0  0  0  0  0  0  0  0
   15.2300   12.7320   39.6210 C   0  0  0  0  0  0  0  0  0  0  0  0
   15.0850   10.8330   41.2800 C   0  0  0  0  0  0  0  0  0  0  0  0
   16.3640   11.1440   41.9670 C   0  0  0  0  0  0  0  0  0  0  0  0
   11.9760    8.5800   43.2240 N   0  0  0  0  0  0  0  0  0  0  0  0
   11.0830    7.7490   43.7950 C   0  0  0  0  0  0  0  0  0  0  0  0
  1  2  1  0
  2  3  1  0
  3  4  1  0
  4  5  1  0
  5  6  2  0
  6  7  1  0
  7  8  2  0
  8  9  1  0
  9 10  1  0
 10 11  1  0
 11 12  2  0
 12 13  1  0
 13 14  1  0
 13 15  1  0
 15 16  1  0
  8 17  1  0
 17 18  2  0
 18  5  1  0
 15 10  2  0
M  END
$$$$

     RDKit          3D

 18 19  0  0  0  0  0  0  0  0999 V2000
    8.1790    8.2650   46.7390 C   0  0  0  0  0  0  0  0  0  0  0  0
    9.3280    7.3310   46.4160 C   0  0  0  0  0  0  0  0  0  0  0  0
    8.8750    6.2250   45.5170 N   0  0  0  0  0  0  0  0  0  0  0  0
    9.9590    5.3990   44.8950 C   0  0  0  0  0  0  0  0  0  0  0  0
   11.0030    6.2430   44.2560 C   0  0  0  0  0  0  0  0  0  0  0  0
   12.2600    5.7740   43.9440 C   0  0  0  0  0  0  0  0  0  0  0  0
   13.2330    6.5380   43.4170 N   0  0  0  0  0  0  0  0  0  0  0  0
   12.9540    7.8300   43.1730 C   0  0  0  0  0  0  0  0  0  0  0  0
   13.9910    8.5860   42.6310 N   0  0  0  0  0  0  0  0  0  0  0  0
   13.9780    9.5620   41.7000 C   0  0  0  0  0  0  0  0  0  0  0  0
   12.9890    9.8910   40.7530 C   0  0  0  0  0  0  0  0  0  0  0  0
   13.3350   10.9370   39.9980 N   0  0  0  0  0  0  0  0  0  0  0  0
   14.5550   11.2690   40.4550 N   0  0  0  0  0  0  0  0  0  0  0  0
   15.2570   12.3780   39.8490 C   0  0  0  0  0  0  0  0  0  0  0  0
   14.9910   10.4770   41.4930 C   0  0  0  0  0  0  0  0  0  0  0  0
   16.3050   10.6770   42.1550 C   0  0  0  0  0  0  0  0  0  0  0  0
   11.7550    8.3690   43.4430 N   0  0  0  0  0  0  0  0  0  0  0  0
   10.8060    7.5740   43.9630 C   0  0  0  0  0  0  0  0  0  0  0  0
  1  2  1  0
  2  3  1  0
  3  4  1  0
  4  5  1  0
  5  6  2  0
  6  7  1  0
  7  8  2  0
  8  9  1  0
  9 10  1  0
 10 11  1  0
 11 12  2  0
 12 13  1  0
 13 14  1  0
 13 15  1  0
 15 16  1  0
  8 17  1  0
 17 18  2  0
 18  5  1  0
 15 10  2  0
M  CHG  1   3   1
M  END
$$$$

     RDKit          3D

 18 19  0  0  0  0  0  0  0  0999 V2000
   10.3660    4.3170   45.1970 C   0  0  0  0  0  0  0  0  0  0  0  0
    9.5240    5.5580   45.0510 C   0  0  0  0  0  0  0  0  0  0  0  0
    8.4020    5.5000   44.5480 O   0  0  0  0  0  0  0  0  0  0  0  0
   10.1670    6.8580   45.5030 C   0  0  0  0  0  0  0  0  0  0  0  0
   11.2710    7.3570   44.6220 C   0  0  0  0  0  0  0  0  0  0  0  0
   12.0010    6.5220   43.8040 C   0  0  0  0  0  0  0  0  0  0  0  0
   12.9760    6.9430   42.9770 N   0  0  0  0  0  0  0  0  0  0  0  0
   13.2470    8.2580   42.9600 C   0  0  0  0  0  0  0  0  0  0  0  0
   14.2420    8.7880   42.1370 N   0  0  0  0  0  0  0  0  0  0  0  0
   14.2340    9.8470   41.3050 C   0  0  0  0  0  0  0  0  0  0  0  0
   13.2740   10.2370   40.3500 C   0  0  0  0  0  0  0  0  0  0  0  0
   13.6180   11.3570   39.7110 N   0  0  0  0  0  0  0  0  0  0  0  0
   14.8080   11.6770   40.2530 N   0  0  0  0  0  0  0  0  0  0  0  0
   15.4960   12.8590   39.7870 C   0  0  0  0  0  0  0  0  0  0  0  0
   15.2250   10.8040   41.2290 C   0  0  0  0  0  0  0  0  0  0  0  0
   16.5020   10.9740   41.9650 C   0  0  0  0  0  0  0  0  0  0  0  0
   12.5910    9.1530   43.7160 N   0  0  0  0  0  0  0  0  0  0  0  0
   11.6250    8.6840   44.5320 C   0  0  0  0  0  0  0  0  0  0  0  0
  1  2  1  0
  2  3  2  0
  2  4  1  0
  4  5  1  0
  5  6  2  0
  6  7  1  0
  7  8  2  0
  8  9  1  0
  9 10  1  0
 10 11  1  0
 11 12  2  0
 12 13  1  0
 13 14  1  0
 13 15  1  0
 15 16  1  0
  8 17  1  0
 17 18  2  0
 18  5  1  0
 15 10  2  0
M  END
$$$$

     RDKit          3D

 18 19  0  0  0  0  0  0  0  0999 V2000
    8.4530    8.2160   46.7270 C   0  0  0  0  0  0  0  0  0  0  0  0
    8.4670    6.7590   46.4160 N   0  0  0  0  0  0  0  0  0  0  0  0
    8.9960    6.3800   45.0670 C   0  0  0  0  0  0  0  0  0  0  0  0
   10.4000    5.7740   45.1600 C   0  0  0  0  0  0  0  0  0  0  0  0
   11.3990    6.6190   44.4330 C   0  0  0  0  0  0  0  0  0  0  0  0
   12.4680    6.0910   43.7450 C   0  0  0  0  0  0  0  0  0  0  0  0
   13.4060    6.8370   43.1340 N   0  0  0  0  0  0  0  0  0  0  0  0
   13.2770    8.1730   43.1940 C   0  0  0  0  0  0  0  0  0  0  0  0
   14.2710    8.9070   42.5490 N   0  0  0  0  0  0  0  0  0  0  0  0
   14.1910    9.8480   41.5860 C   0  0  0  0  0  0  0  0  0  0  0  0
   13.1910   10.0620   40.6170 C   0  0  0  0  0  0  0  0  0  0  0  0
   13.4590   11.1060   39.8300 N   0  0  0  0  0  0  0  0  0  0  0  0
   14.6420   11.5540   40.2900 N   0  0  0  0  0  0  0  0  0  0  0  0
   15.2570   12.6980   39.6550 C   0  0  0  0  0  0  0  0  0  0  0  0
   15.1260   10.8360   41.3600 C   0  0  0  0  0  0  0  0  0  0  0  0
   16.4090   11.1660   42.0290 C   0  0  0  0  0  0  0  0  0  0  0  0
   12.2650    8.7740   43.8400 N   0  0  0  0  0  0  0  0  0  0  0  0
   11.3480    7.9950   44.4340 C   0  0  0  0  0  0  0  0  0  0  0  0
  1  2  1  0
  2  3  1  0
  3  4  1  0
  4  5  1  0
  5  6  2  0
  6  7  1  0
  7  8  2  0
  8  9  1  0
  9 10  1  0
 10 11  1  0
 11 12  2  0
 12 13  1  0
 13 14  1  0
 13 15  1  0
 15 16  1  0
  8 17  1  0
 17 18  2  0
 18  5  1  0
 15 10  2  0
M  CHG  1   2   1
M  END
$$$$

     RDKit          3D

 18 19  0  0  0  0  0  0  0  0999 V2000
    8.6380    8.1160   46.7260 C   0  0  0  0  0  0  0  0  0  0  0  0
    8.3860    6.7680   46.3540 O   0  0  0  0  0  0  0  0  0  0  0  0
    8.9380    6.4180   45.0830 C   0  0  0  0  0  0  0  0  0  0  0  0
   10.3680    5.8830   45.2020 C   0  0  0  0  0  0  0  0  0  0  0  0
   11.3810    6.7000   44.4560 C   0  0  0  0  0  0  0  0  0  0  0  0
   12.4520    6.1330   43.8010 C   0  0  0  0  0  0  0  0  0  0  0  0
   13.3890    6.8370   43.1340 N   0  0  0  0  0  0  0  0  0  0  0  0
   13.2590    8.1740   43.1220 C   0  0  0  0  0  0  0  0  0  0  0  0
   14.2530    8.8610   42.4240 N   0  0  0  0  0  0  0  0  0  0  0  0
   14.1740    9.8350   41.4970 C   0  0  0  0  0  0  0  0  0  0  0  0
   13.1890   10.0670   40.5160 C   0  0  0  0  0  0  0  0  0  0  0  0
   13.4580   11.1450   39.7710 N   0  0  0  0  0  0  0  0  0  0  0  0
   14.6210   11.5950   40.2760 N   0  0  0  0  0  0  0  0  0  0  0  0
   15.2260   12.7730   39.6990 C   0  0  0  0  0  0  0  0  0  0  0  0
   15.0970   10.8460   41.3260 C   0  0  0  0  0  0  0  0  0  0  0  0
   16.3590   11.1720   42.0360 C   0  0  0  0  0  0  0  0  0  0  0  0
   12.2570    8.8210   43.7350 N   0  0  0  0  0  0  0  0  0  0  0  0
   11.3410    8.0750   44.3850 C   0  0  0  0  0  0  0  0  0  0  0  0
  1  2  1  0
  2  3  1  0
  3  4  1  0
  4  5  1  0
  5  6  2  0
  6  7  1  0
  7  8  2  0
  8  9  1  0
  9 10  1  0
 10 11  1  0
 11 12  2  0
 12 13  1  0
 13 14  1  0
 13 15  1  0
 15 16  1  0
  8 17  1  0
 17 18  2  0
 18  5  1  0
 15 10  2  0
M  END
$$$$

     RDKit          3D

 17 18  0  0  0  0  0  0  0  0999 V2000
    8.6070    4.3860   44.5170 C   0  0  0  0  0  0  0  0  0  0  0  0
   10.2570    4.6970   45.1890 S   0  0  0  0  0  0  0  0  0  0  0  0
   10.1860    6.5120   45.2580 C   0  0  0  0  0  0  0  0  0  0  0  0
   11.2890    7.1370   44.4690 C   0  0  0  0  0  0  0  0  0  0  0  0
   12.1240    6.4120   43.6500 C   0  0  0  0  0  0  0  0  0  0  0  0
   13.1310    6.9530   42.9370 N   0  0  0  0  0  0  0  0  0  0  0  0
   13.3090    8.2800   43.0270 C   0  0  0  0  0  0  0  0  0  0  0  0
   14.3250    8.9310   42.3270 N   0  0  0  0  0  0  0  0  0  0  0  0
   14.2800    9.9190   41.4120 C   0  0  0  0  0  0  0  0  0  0  0  0
   13.3040   10.1970   40.4330 C   0  0  0  0  0  0  0  0  0  0  0  0
   13.6100   11.2720   39.7010 N   0  0  0  0  0  0  0  0  0  0  0  0
   14.7800   11.6850   40.2210 N   0  0  0  0  0  0  0  0  0  0  0  0
   15.4200   12.8540   39.6650 C   0  0  0  0  0  0  0  0  0  0  0  0
   15.2380   10.8990   41.2520 C   0  0  0  0  0  0  0  0  0  0  0  0
   16.5120   11.1690   41.9620 C   0  0  0  0  0  0  0  0  0  0  0  0
   12.5390    9.0770   43.7880 N   0  0  0  0  0  0  0  0  0  0  0  0
   11.5440    8.4900   44.4850 C   0  0  0  0  0  0  0  0  0  0  0  0
  1  2  1  0
  2  3  1  0
  3  4  1  0
  4  5  2  0
  5  6  1  0
  6  7  2  0
  7  8  1  0
  8  9  1  0
  9 10  1  0
 10 11  2  0
 11 12  1  0
 12 13  1  0
 12 14  1  0
 14 15  1  0
  7 16  1  0
 16 17  2  0
 17  4  1  0
 14  9  2  0
M  END
$$$$

     RDKit          3D

 17 18  0  0  0  0  0  0  0  0999 V2000
   16.3670   10.7560   42.1230 C   0  0  0  0  0  0  0  0  0  0  0  0
   15.0450   10.5500   41.4820 C   0  0  0  0  0  0  0  0  0  0  0  0
   14.0540    9.6110   41.6870 C   0  0  0  0  0  0  0  0  0  0  0  0
   14.1070    8.6100   42.5870 N   0  0  0  0  0  0  0  0  0  0  0  0
   13.0940    7.8970   43.2280 C   0  0  0  0  0  0  0  0  0  0  0  0
   13.0050    6.5610   43.1310 N   0  0  0  0  0  0  0  0  0  0  0  0
   11.9950    5.9550   43.7830 C   0  0  0  0  0  0  0  0  0  0  0  0
   11.0680    6.6250   44.5480 C   0  0  0  0  0  0  0  0  0  0  0  0
    9.9500    5.9310   45.2590 C   0  0  0  0  0  0  0  0  0  0  0  0
    9.0330    6.8680   45.9210 C   0  0  0  0  0  0  0  0  0  0  0  0
    8.2970    7.5990   46.4430 N   0  0  0  0  0  0  0  0  0  0  0  0
   11.2360    7.9920   44.5790 C   0  0  0  0  0  0  0  0  0  0  0  0
   12.2310    8.6390   43.9400 N   0  0  0  0  0  0  0  0  0  0  0  0
   13.0370    9.9460   40.7700 C   0  0  0  0  0  0  0  0  0  0  0  0
   13.3500   11.0140   40.0300 N   0  0  0  0  0  0  0  0  0  0  0  0
   14.5710   11.3610   40.4790 N   0  0  0  0  0  0  0  0  0  0  0  0
   15.2350   12.5040   39.8940 C   0  0  0  0  0  0  0  0  0  0  0  0
  1  2  1  0
  2  3  2  0
  3  4  1  0
  4  5  1  0
  5  6  2  0
  6  7  1  0
  7  8  2  0
  8  9  1  0
  9 10  1  0
 10 11  3  0
  8 12  1  0
 12 13  2  0
  3 14  1  0
 14 15  2  0
 15 16  1  0
 16 17  1  0
 16  2  1  0
 13  5  1  0
M  END
$$$$

     RDKit          3D

 18 19  0  0  0  0  0  0  0  0999 V2000
   16.2640   11.1980   41.9150 C   0  0  0  0  0  0  0  0  0  0  0  0
   14.9770   10.8300   41.2770 C   0  0  0  0  0  0  0  0  0  0  0  0
   14.0760    9.8140   41.5270 C   0  0  0  0  0  0  0  0  0  0  0  0
   14.2030    8.8870   42.4970 N   0  0  0  0  0  0  0  0  0  0  0  0
   13.2490    8.1600   43.2080 C   0  0  0  0  0  0  0  0  0  0  0  0
   13.3620    6.8250   43.1120 N   0  0  0  0  0  0  0  0  0  0  0  0
   12.4780    6.0770   43.8030 C   0  0  0  0  0  0  0  0  0  0  0  0
   11.4830    6.6050   44.5970 C   0  0  0  0  0  0  0  0  0  0  0  0
   10.5320    5.7550   45.3790 C   0  0  0  0  0  0  0  0  0  0  0  0
    9.0820    6.1760   45.2190 C   0  0  0  0  0  0  0  0  0  0  0  0
    8.5600    6.9260   46.2380 N   0  0  0  0  0  0  0  0  0  0  0  0
    8.3860    5.8750   44.2530 O   0  0  0  0  0  0  0  0  0  0  0  0
   11.4430    7.9810   44.6140 C   0  0  0  0  0  0  0  0  0  0  0  0
   12.3040    8.7670   43.9410 N   0  0  0  0  0  0  0  0  0  0  0  0
   13.0510    9.9890   40.5760 C   0  0  0  0  0  0  0  0  0  0  0  0
   13.2700   11.0410   39.7810 N   0  0  0  0  0  0  0  0  0  0  0  0
   14.4460   11.5300   40.2180 N   0  0  0  0  0  0  0  0  0  0  0  0
   14.9980   12.7010   39.5800 C   0  0  0  0  0  0  0  0  0  0  0  0
  1  2  1  0
  2  3  2  0
  3  4  1  0
  4  5  1  0
  5  6  2  0
  6  7  1  0
  7  8  2  0
  8  9  1  0
  9 10  1  0
 10 11  1  0
 10 12  2  0
  8 13  1  0
 13 14  2  0
  3 15  1  0
 15 16  2  0
 16 17  1  0
 17 18  1  0
 17  2  1  0
 14  5  1  0
M  END
$$$$

     RDKit          3D

 19 20  0  0  0  0  0  0  0  0999 V2000
   16.5580   11.1950   41.9610 C   0  0  0  0  0  0  0  0  0  0  0  0
   15.2800   10.9310   41.2530 C   0  0  0  0  0  0  0  0  0  0  0  0
   14.3230    9.9490   41.4060 C   0  0  0  0  0  0  0  0  0  0  0  0
   14.3710    8.9540   42.3120 N   0  0  0  0  0  0  0  0  0  0  0  0
   13.3560    8.2360   42.9430 C   0  0  0  0  0  0  0  0  0  0  0  0
   13.3290    6.8930   42.9290 N   0  0  0  0  0  0  0  0  0  0  0  0
   12.3100    6.2850   43.5670 C   0  0  0  0  0  0  0  0  0  0  0  0
   11.3100    6.9570   44.2290 C   0  0  0  0  0  0  0  0  0  0  0  0
   10.1730    6.2570   44.8990 C   0  0  0  0  0  0  0  0  0  0  0  0
    9.1210    7.1980   45.1320 O   0  0  0  0  0  0  0  0  0  0  0  0
    8.9920    7.5460   46.4310 C   0  0  0  0  0  0  0  0  0  0  0  0
    7.7710    7.1920   46.8850 N   0  0  0  0  0  0  0  0  0  0  0  0
    9.8350    8.1030   47.1140 O   0  0  0  0  0  0  0  0  0  0  0  0
   11.4190    8.3280   44.1790 C   0  0  0  0  0  0  0  0  0  0  0  0
   12.4200    8.9820   43.5540 N   0  0  0  0  0  0  0  0  0  0  0  0
   13.3450   10.2350   40.4330 C   0  0  0  0  0  0  0  0  0  0  0  0
   13.6480   11.3180   39.7110 N   0  0  0  0  0  0  0  0  0  0  0  0
   14.8200   11.7250   40.2290 N   0  0  0  0  0  0  0  0  0  0  0  0
   15.4600   12.8990   39.6800 C   0  0  0  0  0  0  0  0  0  0  0  0
  1  2  1  0
  2  3  2  0
  3  4  1  0
  4  5  1  0
  5  6  2  0
  6  7  1  0
  7  8  2  0
  8  9  1  0
  9 10  1  0
 10 11  1  0
 11 12  1  0
 11 13  2  0
  8 14  1  0
 14 15  2  0
  3 16  1  0
 16 17  2  0
 17 18  1  0
 18 19  1  0
 18  2  1  0
 15  5  1  0
M  END
$$$$

     RDKit          3D

 16 17  0  0  0  0  0  0  0  0999 V2000
   16.2610   10.5250   42.1990 C   0  0  0  0  0  0  0  0  0  0  0  0
   14.9290   10.3720   41.5660 C   0  0  0  0  0  0  0  0  0  0  0  0
   13.8920    9.4870   41.7910 C   0  0  0  0  0  0  0  0  0  0  0  0
   13.8960    8.5080   42.7170 N   0  0  0  0  0  0  0  0  0  0  0  0
   12.8490    7.8510   43.3610 C   0  0  0  0  0  0  0  0  0  0  0  0
   12.8700    6.5100   43.2670 N   0  0  0  0  0  0  0  0  0  0  0  0
   11.8780    5.8310   43.8760 C   0  0  0  0  0  0  0  0  0  0  0  0
   10.8630    6.4290   44.5860 C   0  0  0  0  0  0  0  0  0  0  0  0
    9.7650    5.6610   45.2380 C   0  0  0  0  0  0  0  0  0  0  0  0
    8.8890    6.5290   45.9430 O   0  0  0  0  0  0  0  0  0  0  0  0
   10.9230    7.8030   44.6160 C   0  0  0  0  0  0  0  0  0  0  0  0
   11.8960    8.5240   44.0240 N   0  0  0  0  0  0  0  0  0  0  0  0
   12.8940    9.8480   40.8640 C   0  0  0  0  0  0  0  0  0  0  0  0
   13.2560   10.8840   40.1030 N   0  0  0  0  0  0  0  0  0  0  0  0
   14.4890   11.1870   40.5490 N   0  0  0  0  0  0  0  0  0  0  0  0
   15.2060   12.2840   39.9390 C   0  0  0  0  0  0  0  0  0  0  0  0
  1  2  1  0
  2  3  2  0
  3  4  1  0
  4  5  1  0
  5  6  2  0
  6  7  1  0
  7  8  2  0
  8  9  1  0
  9 10  1  0
  8 11  1  0
 11 12  2  0
  3 13  1  0
 13 14  2  0
 14 15  1  0
 15 16  1  0
 15  2  1  0
 12  5  1  0
M  END
$$$$

     RDKit          3D

 18 19  0  0  0  0  0  0  0  0999 V2000
   16.4220   11.1620   42.0010 C   0  0  0  0  0  0  0  0  0  0  0  0
   15.1320   10.8480   41.3370 C   0  0  0  0  0  0  0  0  0  0  0  0
   14.1920    9.8630   41.5620 C   0  0  0  0  0  0  0  0  0  0  0  0
   14.2740    8.9150   42.5160 N   0  0  0  0  0  0  0  0  0  0  0  0
   13.2830    8.1950   43.1820 C   0  0  0  0  0  0  0  0  0  0  0  0
   13.3970    6.8580   43.1020 N   0  0  0  0  0  0  0  0  0  0  0  0
   12.4610    6.1200   43.7330 C   0  0  0  0  0  0  0  0  0  0  0  0
   11.4150    6.6560   44.4490 C   0  0  0  0  0  0  0  0  0  0  0  0
   10.3820    5.8140   45.1300 C   0  0  0  0  0  0  0  0  0  0  0  0
    9.0450    6.5390   45.2540 C   0  0  0  0  0  0  0  0  0  0  0  0
    8.9330    7.2790   46.5800 C   0  0  0  0  0  0  0  0  0  0  0  0
    8.1400    8.4410   46.3890 O   0  0  0  0  0  0  0  0  0  0  0  0
   11.3820    8.0320   44.4640 C   0  0  0  0  0  0  0  0  0  0  0  0
   12.2950    8.8110   43.8500 N   0  0  0  0  0  0  0  0  0  0  0  0
   13.1880   10.0890   40.5990 C   0  0  0  0  0  0  0  0  0  0  0  0
   13.4580   11.1390   39.8180 N   0  0  0  0  0  0  0  0  0  0  0  0
   14.6390   11.5840   40.2860 N   0  0  0  0  0  0  0  0  0  0  0  0
   15.2510   12.7350   39.6640 C   0  0  0  0  0  0  0  0  0  0  0  0
  1  2  1  0
  2  3  2  0
  3  4  1  0
  4  5  1  0
  5  6  2  0
  6  7  1  0
  7  8  2  0
  8  9  1  0
  9 10  1  0
 10 11  1  0
 11 12  1  0
  8 13  1  0
 13 14  2  0
  3 15  1  0
 15 16  2  0
 16 17  1  0
 17 18  1  0
 17  2  1  0
 14  5  1  0
M  END
$$$$

     RDKit          3D

 18 19  0  0  0  0  0  0  0  0999 V2000
   16.2250   11.0930   42.0430 C   0  0  0  0  0  0  0  0  0  0  0  0
   14.9560   10.7570   41.3530 C   0  0  0  0  0  0  0  0  0  0  0  0
   14.0470    9.7350   41.5400 C   0  0  0  0  0  0  0  0  0  0  0  0
   14.1540    8.7660   42.4670 N   0  0  0  0  0  0  0  0  0  0  0  0
   13.1860    8.0860   43.2110 C   0  0  0  0  0  0  0  0  0  0  0  0
   13.2780    6.7470   43.1570 N   0  0  0  0  0  0  0  0  0  0  0  0
   12.3630    6.0420   43.8580 C   0  0  0  0  0  0  0  0  0  0  0  0
   11.3750    6.6180   44.6250 C   0  0  0  0  0  0  0  0  0  0  0  0
   10.4010    5.8140   45.4260 C   0  0  0  0  0  0  0  0  0  0  0  0
    8.9650    6.2460   45.1470 C   0  0  0  0  0  0  0  0  0  0  0  0
    8.4120    5.6650   44.1680 O   0  0  0  0  0  0  0  0  0  0  0  0
    8.5000    7.1120   45.9400 O   0  0  0  0  0  0  0  0  0  0  0  0
   11.3620    7.9930   44.5980 C   0  0  0  0  0  0  0  0  0  0  0  0
   12.2540    8.7450   43.9180 N   0  0  0  0  0  0  0  0  0  0  0  0
   13.0440    9.9550   40.5750 C   0  0  0  0  0  0  0  0  0  0  0  0
   13.2850   11.0380   39.8280 N   0  0  0  0  0  0  0  0  0  0  0  0
   14.4550   11.4960   40.3090 N   0  0  0  0  0  0  0  0  0  0  0  0
   15.0410   12.6750   39.7160 C   0  0  0  0  0  0  0  0  0  0  0  0
  1  2  1  0
  2  3  2  0
  3  4  1  0
  4  5  1  0
  5  6  2  0
  6  7  1  0
  7  8  2  0
  8  9  1  0
  9 10  1  0
 10 11  2  0
 10 12  1  0
  8 13  1  0
 13 14  2  0
  3 15  1  0
 15 16  2  0
 16 17  1  0
 17 18  1  0
 17  2  1  0
 14  5  1  0
M  CHG  1  12  -1
M  END
$$$$
