
     RDKit          3D

 31 32  0  0  0  0  0  0  0  0999 V2000
   14.5560   13.3470   39.4350 C   0  0  0  0  0  0  0  0  0  0  0  0
   15.4510   12.3450   40.1430 C   0  0  0  0  0  0  0  0  0  0  0  0
   14.6970   11.2320   40.6960 N   0  0  0  0  0  0  0  0  0  0  0  0
   13.4510   11.0100   40.2370 N   0  0  0  0  0  0  0  0  0  0  0  0
   13.0410    9.9490   40.9370 C   0  0  0  0  0  0  0  0  0  0  0  0
   14.0220    9.4920   41.8390 C   0  0  0  0  0  0  0  0  0  0  0  0
   13.9800    8.4620   42.7070 N   0  0  0  0  0  0  0  0  0  0  0  0
   12.9050    7.8300   43.3320 C   0  0  0  0  0  0  0  0  0  0  0  0
   12.8920    6.4900   43.2310 N   0  0  0  0  0  0  0  0  0  0  0  0
   11.8730    5.8360   43.8230 C   0  0  0  0  0  0  0  0  0  0  0  0
   10.8670    6.4590   44.5250 C   0  0  0  0  0  0  0  0  0  0  0  0
    9.7320    5.7160   45.1380 C   0  0  0  0  0  0  0  0  0  0  0  0
   10.9610    7.8310   44.5570 C   0  0  0  0  0  0  0  0  0  0  0  0
   11.9610    8.5280   43.9810 N   0  0  0  0  0  0  0  0  0  0  0  0
   15.0970   10.3410   41.6650 C   0  0  0  0  0  0  0  0  0  0  0  0
   16.4310   10.3910   42.3110 C   0  0  0  0  0  0  0  0  0  0  0  0
   14.0178   13.9495   40.1816 H   0  0  0  0  0  0  0  0  0  0  0  0
   15.1708   14.0069   38.8053 H   0  0  0  0  0  0  0  0  0  0  0  0
   13.8311   12.8103   38.8053 H   0  0  0  0  0  0  0  0  0  0  0  0
   16.1841   11.9534   39.4224 H   0  0  0  0  0  0  0  0  0  0  0  0
   15.9475   12.8643   40.9759 H   0  0  0  0  0  0  0  0  0  0  0  0
   12.0503    9.4849   40.8223 H   0  0  0  0  0  0  0  0  0  0  0  0
   14.8230    8.0000   43.0220 H   0  0  0  0  0  0  0  0  0  0  0  0
   11.8439    4.7395   43.7400 H   0  0  0  0  0  0  0  0  0  0  0  0
    9.8097    5.7669   46.2341 H   0  0  0  0  0  0  0  0  0  0  0  0
    8.7819    6.1675   44.8164 H   0  0  0  0  0  0  0  0  0  0  0  0
    9.7657    4.6646   44.8164 H   0  0  0  0  0  0  0  0  0  0  0  0
   10.1746    8.3920   45.0831 H   0  0  0  0  0  0  0  0  0  0  0  0
   16.3094   10.3864   43.4042 H   0  0  0  0  0  0  0  0  0  0  0  0
   17.0202    9.5143   42.0040 H   0  0  0  0  0  0  0  0  0  0  0  0
   16.9529   11.3093   42.0040 H   0  0  0  0  0  0  0  0  0  0  0  0
  1  2  1  0
  2  3  1  0
  3  4  1  0
  4  5  2  0
  5  6  1  0
  6  7  1  0
  7  8  1  0
  8  9  2  0
  9 10  1  0
 10 11  2  0
 11 12  1  0
 11 13  1  0
 13 14  2  0
  6 15  2  0
 15 16  1  0
 15  3  1  0
 14  8  1  0
  1 17  1  0
  1 18  1  0
  1 19  1  0
  2 20  1  0
  2 21  1  0
  5 22  1  0
  7 23  1  0
 10 24  1  0
 12 25  1  0
 12 26  1  0
 12 27  1  0
 13 28  1  0
 16 29  1  0
 16 30  1  0
 16 31  1  0
M  END
>  <meeko>  (1) 
{"is_sidechain": false}

>  <vina_energy>  (1) 
-7.34

$$$$

     RDKit          3D

 38 40  0  0  0  0  0  0  0  0999 V2000
   21.1870   15.3170   43.8100 C   0  0  0  0  0  0  0  0  0  0  0  0
   20.1050   14.6130   43.0700 C   0  0  0  0  0  0  0  0  0  0  0  0
   20.3480   13.5430   42.2390 C   0  0  0  0  0  0  0  0  0  0  0  0
   19.3910   12.9110   41.5330 N   0  0  0  0  0  0  0  0  0  0  0  0
   18.1350   13.3680   41.6470 C   0  0  0  0  0  0  0  0  0  0  0  0
   17.0760   12.7770   40.9570 N   0  0  0  0  0  0  0  0  0  0  0  0
   16.2880   11.7300   41.2690 C   0  0  0  0  0  0  0  0  0  0  0  0
   16.4380   10.7600   42.2780 C   0  0  0  0  0  0  0  0  0  0  0  0
   15.4470    9.8640   42.2770 N   0  0  0  0  0  0  0  0  0  0  0  0
   14.6620   10.2570   41.2480 N   0  0  0  0  0  0  0  0  0  0  0  0
   13.4470    9.4970   40.9650 C   0  0  0  0  0  0  0  0  0  0  0  0
   12.9720    8.6950   42.1530 C   0  0  0  0  0  0  0  0  0  0  0  0
   12.5640    9.3330   43.3350 C   0  0  0  0  0  0  0  0  0  0  0  0
   12.1110    8.5860   44.4240 C   0  0  0  0  0  0  0  0  0  0  0  0
   12.0510    7.1980   44.3410 C   0  0  0  0  0  0  0  0  0  0  0  0
   12.4410    6.5520   43.1700 C   0  0  0  0  0  0  0  0  0  0  0  0
   12.8950    7.2960   42.0790 C   0  0  0  0  0  0  0  0  0  0  0  0
   15.1190   11.3950   40.6160 C   0  0  0  0  0  0  0  0  0  0  0  0
   14.4210   12.0210   39.4650 C   0  0  0  0  0  0  0  0  0  0  0  0
   17.7990   14.4160   42.4200 N   0  0  0  0  0  0  0  0  0  0  0  0
   18.7900   15.0170   43.1080 C   0  0  0  0  0  0  0  0  0  0  0  0
   21.0213   15.2092   44.8921 H   0  0  0  0  0  0  0  0  0  0  0  0
   22.1596   14.8783   43.5425 H   0  0  0  0  0  0  0  0  0  0  0  0
   21.1800   16.3840   43.5425 H   0  0  0  0  0  0  0  0  0  0  0  0
   21.3834   13.1834   42.1462 H   0  0  0  0  0  0  0  0  0  0  0  0
   16.9680   13.2790   40.0860 H   0  0  0  0  0  0  0  0  0  0  0  0
   17.2777   10.7418   42.9883 H   0  0  0  0  0  0  0  0  0  0  0  0
   12.6521   10.1995   40.6740 H   0  0  0  0  0  0  0  0  0  0  0  0
   13.6790    8.7881   40.1565 H   0  0  0  0  0  0  0  0  0  0  0  0
   12.6015   10.4302   43.4037 H   0  0  0  0  0  0  0  0  0  0  0  0
   11.8012    9.0950   45.3486 H   0  0  0  0  0  0  0  0  0  0  0  0
   11.6954    6.6108   45.2005 H   0  0  0  0  0  0  0  0  0  0  0  0
   12.3913    5.4551   43.1047 H   0  0  0  0  0  0  0  0  0  0  0  0
   13.1946    6.7812   41.1542 H   0  0  0  0  0  0  0  0  0  0  0  0
   13.6500   12.7125   39.8357 H   0  0  0  0  0  0  0  0  0  0  0  0
   15.1476   12.5758   38.8532 H   0  0  0  0  0  0  0  0  0  0  0  0
   13.9482   11.2386   38.8532 H   0  0  0  0  0  0  0  0  0  0  0  0
   18.5324   15.8817   43.7372 H   0  0  0  0  0  0  0  0  0  0  0  0
  1  2  1  0
  2  3  2  0
  3  4  1  0
  4  5  2  0
  5  6  1  0
  6  7  1  0
  7  8  1  0
  8  9  2  0
  9 10  1  0
 10 11  1  0
 11 12  1  0
 12 13  2  0
 13 14  1  0
 14 15  2  0
 15 16  1  0
 16 17  2  0
 10 18  1  0
 18 19  1  0
  5 20  1  0
 20 21  2  0
 21  2  1  0
 18  7  2  0
 17 12  1  0
  1 22  1  0
  1 23  1  0
  1 24  1  0
  3 25  1  0
  6 26  1  0
  8 27  1  0
 11 28  1  0
 11 29  1  0
 13 30  1  0
 14 31  1  0
 15 32  1  0
 16 33  1  0
 17 34  1  0
 19 35  1  0
 19 36  1  0
 19 37  1  0
 21 38  1  0
M  END
>  <meeko>  (2) 
{"is_sidechain": false}

>  <vina_energy>  (2) 
-6.58

$$$$

     RDKit          3D

 37 39  0  0  0  0  0  0  0  0999 V2000
   21.4640   15.0640   43.4610 C   0  0  0  0  0  0  0  0  0  0  0  0
   20.2740   14.4450   42.8170 C   0  0  0  0  0  0  0  0  0  0  0  0
   20.3710   13.4250   41.8990 C   0  0  0  0  0  0  0  0  0  0  0  0
   19.3120   12.8720   41.2780 N   0  0  0  0  0  0  0  0  0  0  0  0
   18.0970   13.3610   41.5750 C   0  0  0  0  0  0  0  0  0  0  0  0
   16.9400   12.8520   40.9860 N   0  0  0  0  0  0  0  0  0  0  0  0
   16.2060   11.7580   41.2700 C   0  0  0  0  0  0  0  0  0  0  0  0
   16.3980   10.7810   42.2670 C   0  0  0  0  0  0  0  0  0  0  0  0
   15.4510    9.8390   42.2440 N   0  0  0  0  0  0  0  0  0  0  0  0
   14.6440   10.2210   41.2320 N   0  0  0  0  0  0  0  0  0  0  0  0
   13.4860    9.3900   40.9110 C   0  0  0  0  0  0  0  0  0  0  0  0
   12.9450    8.6740   42.1150 C   0  0  0  0  0  0  0  0  0  0  0  0
   12.9360    7.2780   42.2060 C   0  0  0  0  0  0  0  0  0  0  0  0
   12.4140    6.6610   43.3390 C   0  0  0  0  0  0  0  0  0  0  0  0
   11.9070    7.4630   44.3470 C   0  0  0  0  0  0  0  0  0  0  0  0
   11.8880    8.8130   44.2930 N   0  0  0  0  0  0  0  0  0  0  0  0
   12.4000    9.3840   43.1810 C   0  0  0  0  0  0  0  0  0  0  0  0
   15.0650   11.3700   40.5980 C   0  0  0  0  0  0  0  0  0  0  0  0
   14.3420   11.9820   39.4560 C   0  0  0  0  0  0  0  0  0  0  0  0
   17.9000   14.3660   42.4460 N   0  0  0  0  0  0  0  0  0  0  0  0
   18.9900   14.8880   43.0410 C   0  0  0  0  0  0  0  0  0  0  0  0
   21.3590   15.0094   44.5546 H   0  0  0  0  0  0  0  0  0  0  0  0
   22.3708   14.5233   43.1522 H   0  0  0  0  0  0  0  0  0  0  0  0
   21.5419   16.1169   43.1522 H   0  0  0  0  0  0  0  0  0  0  0  0
   21.3723   13.0386   41.6582 H   0  0  0  0  0  0  0  0  0  0  0  0
   16.6820   13.4830   40.2390 H   0  0  0  0  0  0  0  0  0  0  0  0
   17.2329   10.7926   42.9830 H   0  0  0  0  0  0  0  0  0  0  0  0
   12.6946   10.0316   40.4962 H   0  0  0  0  0  0  0  0  0  0  0  0
   13.8094    8.6294   40.1852 H   0  0  0  0  0  0  0  0  0  0  0  0
   13.3406    6.6694   41.3839 H   0  0  0  0  0  0  0  0  0  0  0  0
   12.4045    5.5649   43.4311 H   0  0  0  0  0  0  0  0  0  0  0  0
   11.4964    6.9736   45.2425 H   0  0  0  0  0  0  0  0  0  0  0  0
   12.3853   10.4818   43.1135 H   0  0  0  0  0  0  0  0  0  0  0  0
   13.5541   12.6490   39.8359 H   0  0  0  0  0  0  0  0  0  0  0  0
   15.0482   12.5609   38.8427 H   0  0  0  0  0  0  0  0  0  0  0  0
   13.8877   11.1899   38.8427 H   0  0  0  0  0  0  0  0  0  0  0  0
   18.8454   15.7180   43.7483 H   0  0  0  0  0  0  0  0  0  0  0  0
  1  2  1  0
  2  3  2  0
  3  4  1  0
  4  5  2  0
  5  6  1  0
  6  7  1  0
  7  8  1  0
  8  9  2  0
  9 10  1  0
 10 11  1  0
 11 12  1  0
 12 13  2  0
 13 14  1  0
 14 15  2  0
 15 16  1  0
 16 17  2  0
 10 18  1  0
 18 19  1  0
  5 20  1  0
 20 21  2  0
 21  2  1  0
 18  7  2  0
 17 12  1  0
  1 22  1  0
  1 23  1  0
  1 24  1  0
  3 25  1  0
  6 26  1  0
  8 27  1  0
 11 28  1  0
 11 29  1  0
 13 30  1  0
 14 31  1  0
 15 32  1  0
 17 33  1  0
 19 34  1  0
 19 35  1  0
 19 36  1  0
 21 37  1  0
M  END
>  <meeko>  (3) 
{"is_sidechain": false}

>  <vina_energy>  (3) 
-6.45

$$$$

     RDKit          3D

 34 35  0  0  0  0  0  0  0  0999 V2000
   15.3890   14.4430   38.7660 C   0  0  0  0  0  0  0  0  0  0  0  0
   14.5780   13.3410   39.4290 C   0  0  0  0  0  0  0  0  0  0  0  0
   15.4800   12.3450   40.1520 C   0  0  0  0  0  0  0  0  0  0  0  0
   14.7280   11.2310   40.7030 N   0  0  0  0  0  0  0  0  0  0  0  0
   13.4950   10.9870   40.2180 N   0  0  0  0  0  0  0  0  0  0  0  0
   13.0830    9.9300   40.9240 C   0  0  0  0  0  0  0  0  0  0  0  0
   14.0470    9.4980   41.8550 C   0  0  0  0  0  0  0  0  0  0  0  0
   13.9970    8.4800   42.7370 N   0  0  0  0  0  0  0  0  0  0  0  0
   12.9150    7.8440   43.3460 C   0  0  0  0  0  0  0  0  0  0  0  0
   11.9480    8.5400   43.9650 N   0  0  0  0  0  0  0  0  0  0  0  0
   10.9440    7.8390   44.5260 C   0  0  0  0  0  0  0  0  0  0  0  0
   10.8650    6.4660   44.5100 C   0  0  0  0  0  0  0  0  0  0  0  0
    9.7250    5.7190   45.1070 C   0  0  0  0  0  0  0  0  0  0  0  0
   11.8940    5.8450   43.8400 C   0  0  0  0  0  0  0  0  0  0  0  0
   12.9200    6.5030   43.2620 N   0  0  0  0  0  0  0  0  0  0  0  0
   15.1140   10.3580   41.6940 C   0  0  0  0  0  0  0  0  0  0  0  0
   16.4330   10.4340   42.3710 C   0  0  0  0  0  0  0  0  0  0  0  0
   15.8526   15.0730   39.5394 H   0  0  0  0  0  0  0  0  0  0  0  0
   16.1739   13.9943   38.1395 H   0  0  0  0  0  0  0  0  0  0  0  0
   14.7272   15.0590   38.1395 H   0  0  0  0  0  0  0  0  0  0  0  0
   13.8879   13.7928   40.1567 H   0  0  0  0  0  0  0  0  0  0  0  0
   14.0226   12.8016   38.6476 H   0  0  0  0  0  0  0  0  0  0  0  0
   16.2216   11.9551   39.4393 H   0  0  0  0  0  0  0  0  0  0  0  0
   15.9680   12.8712   40.9856 H   0  0  0  0  0  0  0  0  0  0  0  0
   12.1014    9.4513   40.7927 H   0  0  0  0  0  0  0  0  0  0  0  0
   14.8370    8.0330   43.0780 H   0  0  0  0  0  0  0  0  0  0  0  0
   10.1395    8.3977   45.0266 H   0  0  0  0  0  0  0  0  0  0  0  0
    9.7921    5.7630   46.2041 H   0  0  0  0  0  0  0  0  0  0  0  0
    8.7778    6.1721   44.7791 H   0  0  0  0  0  0  0  0  0  0  0  0
    9.7623    4.6697   44.7791 H   0  0  0  0  0  0  0  0  0  0  0  0
   11.8791    4.7472   43.7717 H   0  0  0  0  0  0  0  0  0  0  0  0
   16.2866   10.4256   43.4612 H   0  0  0  0  0  0  0  0  0  0  0  0
   17.0465    9.5697   42.0767 H   0  0  0  0  0  0  0  0  0  0  0  0
   16.9432   11.3630   42.0767 H   0  0  0  0  0  0  0  0  0  0  0  0
  1  2  1  0
  2  3  1  0
  3  4  1  0
  4  5  1  0
  5  6  2  0
  6  7  1  0
  7  8  1  0
  8  9  1  0
  9 10  2  0
 10 11  1  0
 11 12  2  0
 12 13  1  0
 12 14  1  0
 14 15  2  0
  7 16  2  0
 16 17  1  0
 16  4  1  0
 15  9  1  0
  1 18  1  0
  1 19  1  0
  1 20  1  0
  2 21  1  0
  2 22  1  0
  3 23  1  0
  3 24  1  0
  6 25  1  0
  8 26  1  0
 11 27  1  0
 13 28  1  0
 13 29  1  0
 13 30  1  0
 14 31  1  0
 17 32  1  0
 17 33  1  0
 17 34  1  0
M  END
>  <meeko>  (4) 
{"is_sidechain": false}

>  <vina_energy>  (4) 
-7.00

$$$$

     RDKit          3D

 37 38  0  0  0  0  0  0  0  0999 V2000
   16.9110   14.1760   38.9160 C   0  0  0  0  0  0  0  0  0  0  0  0
   15.4220   14.4400   38.7590 C   0  0  0  0  0  0  0  0  0  0  0  0
   14.5870   13.3240   39.3850 C   0  0  0  0  0  0  0  0  0  0  0  0
   15.4690   12.3290   40.1350 C   0  0  0  0  0  0  0  0  0  0  0  0
   14.6980   11.2340   40.6990 N   0  0  0  0  0  0  0  0  0  0  0  0
   13.4470   11.0280   40.2420 N   0  0  0  0  0  0  0  0  0  0  0  0
   13.0260    9.9710   40.9420 C   0  0  0  0  0  0  0  0  0  0  0  0
   14.0020    9.5020   41.8430 C   0  0  0  0  0  0  0  0  0  0  0  0
   13.9510    8.4690   42.7070 N   0  0  0  0  0  0  0  0  0  0  0  0
   12.8710    7.8480   43.3340 C   0  0  0  0  0  0  0  0  0  0  0  0
   11.9320    8.5560   43.9820 N   0  0  0  0  0  0  0  0  0  0  0  0
   10.9280    7.8710   44.5600 C   0  0  0  0  0  0  0  0  0  0  0  0
   10.8200    6.5000   44.5320 C   0  0  0  0  0  0  0  0  0  0  0  0
    9.6790    5.7690   45.1460 C   0  0  0  0  0  0  0  0  0  0  0  0
   11.8200    5.8660   43.8310 C   0  0  0  0  0  0  0  0  0  0  0  0
   12.8450    6.5080   43.2360 N   0  0  0  0  0  0  0  0  0  0  0  0
   15.0840   10.3410   41.6720 C   0  0  0  0  0  0  0  0  0  0  0  0
   16.4180   10.3790   42.3210 C   0  0  0  0  0  0  0  0  0  0  0  0
   17.1646   14.1310   39.9854 H   0  0  0  0  0  0  0  0  0  0  0  0
   17.1660   13.2186   38.4381 H   0  0  0  0  0  0  0  0  0  0  0  0
   17.4796   14.9873   38.4381 H   0  0  0  0  0  0  0  0  0  0  0  0
   15.1737   15.3916   39.2517 H   0  0  0  0  0  0  0  0  0  0  0  0
   15.1903   14.4835   37.6845 H   0  0  0  0  0  0  0  0  0  0  0  0
   13.8667   13.7665   40.0888 H   0  0  0  0  0  0  0  0  0  0  0  0
   14.0633   12.7875   38.5801 H   0  0  0  0  0  0  0  0  0  0  0  0
   16.2123   11.9169   39.4367 H   0  0  0  0  0  0  0  0  0  0  0  0
   15.9550   12.8642   40.9641 H   0  0  0  0  0  0  0  0  0  0  0  0
   12.0301    9.5182   40.8278 H   0  0  0  0  0  0  0  0  0  0  0  0
   14.7880    7.9920   43.0140 H   0  0  0  0  0  0  0  0  0  0  0  0
   10.1479    8.4411   45.0858 H   0  0  0  0  0  0  0  0  0  0  0  0
    9.7582    5.8197   46.2420 H   0  0  0  0  0  0  0  0  0  0  0  0
    8.7331    6.2296   44.8250 H   0  0  0  0  0  0  0  0  0  0  0  0
    9.7021    4.7171   44.8250 H   0  0  0  0  0  0  0  0  0  0  0  0
   11.7806    4.7696   43.7514 H   0  0  0  0  0  0  0  0  0  0  0  0
   16.2942   10.3755   43.4140 H   0  0  0  0  0  0  0  0  0  0  0  0
   16.9999    9.4971   42.0150 H   0  0  0  0  0  0  0  0  0  0  0  0
   16.9487   11.2926   42.0150 H   0  0  0  0  0  0  0  0  0  0  0  0
  1  2  1  0
  2  3  1  0
  3  4  1  0
  4  5  1  0
  5  6  1  0
  6  7  2  0
  7  8  1  0
  8  9  1  0
  9 10  1  0
 10 11  2  0
 11 12  1  0
 12 13  2  0
 13 14  1  0
 13 15  1  0
 15 16  2  0
  8 17  2  0
 17 18  1  0
 17  5  1  0
 16 10  1  0
  1 19  1  0
  1 20  1  0
  1 21  1  0
  2 22  1  0
  2 23  1  0
  3 24  1  0
  3 25  1  0
  4 26  1  0
  4 27  1  0
  7 28  1  0
  9 29  1  0
 12 30  1  0
 14 31  1  0
 14 32  1  0
 14 33  1  0
 15 34  1  0
 18 35  1  0
 18 36  1  0
 18 37  1  0
M  END
>  <meeko>  (5) 
{"is_sidechain": false}

>  <vina_energy>  (5) 
-6.86

$$$$

     RDKit          3D

 37 38  0  0  0  0  0  0  0  0999 V2000
   17.5370   15.1770   38.4140 C   0  0  0  0  0  0  0  0  0  0  0  0
   16.7780   13.9900   38.9740 C   0  0  0  0  0  0  0  0  0  0  0  0
   15.3680   14.2600   38.9760 O   0  0  0  0  0  0  0  0  0  0  0  0
   14.5990   13.4150   39.7280 C   0  0  0  0  0  0  0  0  0  0  0  0
   13.8480   13.7780   40.6240 O   0  0  0  0  0  0  0  0  0  0  0  0
   14.8990   11.9940   39.3390 C   0  0  0  0  0  0  0  0  0  0  0  0
   14.2250   11.0360   40.1960 N   0  0  0  0  0  0  0  0  0  0  0  0
   12.9790   10.6410   39.8590 N   0  0  0  0  0  0  0  0  0  0  0  0
   12.6730    9.7330   40.7880 C   0  0  0  0  0  0  0  0  0  0  0  0
   13.7260    9.5190   41.6980 C   0  0  0  0  0  0  0  0  0  0  0  0
   13.7960    8.6830   42.7520 N   0  0  0  0  0  0  0  0  0  0  0  0
   12.8170    7.9130   43.3810 C   0  0  0  0  0  0  0  0  0  0  0  0
   12.9740    6.5830   43.2640 N   0  0  0  0  0  0  0  0  0  0  0  0
   12.0500    5.7990   43.8560 C   0  0  0  0  0  0  0  0  0  0  0  0
   10.9670    6.2820   44.5510 C   0  0  0  0  0  0  0  0  0  0  0  0
    9.9830    5.3930   45.2280 C   0  0  0  0  0  0  0  0  0  0  0  0
   10.9040    7.6540   44.6260 C   0  0  0  0  0  0  0  0  0  0  0  0
   11.8010    8.4780   44.0510 N   0  0  0  0  0  0  0  0  0  0  0  0
   14.7350   10.3670   41.2880 C   0  0  0  0  0  0  0  0  0  0  0  0
   16.0980   10.6100   41.8210 C   0  0  0  0  0  0  0  0  0  0  0  0
   17.9269   15.7868   39.2423 H   0  0  0  0  0  0  0  0  0  0  0  0
   18.3741   14.8189   37.7967 H   0  0  0  0  0  0  0  0  0  0  0  0
   16.8607   15.7865   37.7967 H   0  0  0  0  0  0  0  0  0  0  0  0
   16.9777   13.1048   38.3523 H   0  0  0  0  0  0  0  0  0  0  0  0
   17.1099   13.8061   40.0065 H   0  0  0  0  0  0  0  0  0  0  0  0
   14.5700   11.8339   38.3016 H   0  0  0  0  0  0  0  0  0  0  0  0
   15.9826   11.8370   39.4446 H   0  0  0  0  0  0  0  0  0  0  0  0
   11.7064    9.2103   40.8373 H   0  0  0  0  0  0  0  0  0  0  0  0
   14.6610    8.5360   43.2540 H   0  0  0  0  0  0  0  0  0  0  0  0
   12.1702    4.7084   43.7780 H   0  0  0  0  0  0  0  0  0  0  0  0
   10.0906    5.4902   46.3184 H   0  0  0  0  0  0  0  0  0  0  0  0
    8.9636    5.6825   44.9329 H   0  0  0  0  0  0  0  0  0  0  0  0
   10.1678    4.3496   44.9329 H   0  0  0  0  0  0  0  0  0  0  0  0
   10.0727    8.1044   45.1882 H   0  0  0  0  0  0  0  0  0  0  0  0
   16.0681   10.6047   42.9206 H   0  0  0  0  0  0  0  0  0  0  0  0
   16.7759    9.8186   41.4688 H   0  0  0  0  0  0  0  0  0  0  0  0
   16.4606   11.5870   41.4688 H   0  0  0  0  0  0  0  0  0  0  0  0
  1  2  1  0
  2  3  1  0
  3  4  1  0
  4  5  2  0
  4  6  1  0
  6  7  1  0
  7  8  1  0
  8  9  2  0
  9 10  1  0
 10 11  1  0
 11 12  1  0
 12 13  2  0
 13 14  1  0
 14 15  2  0
 15 16  1  0
 15 17  1  0
 17 18  2  0
 10 19  2  0
 19 20  1  0
 19  7  1  0
 18 12  1  0
  1 21  1  0
  1 22  1  0
  1 23  1  0
  2 24  1  0
  2 25  1  0
  6 26  1  0
  6 27  1  0
  9 28  1  0
 11 29  1  0
 14 30  1  0
 16 31  1  0
 16 32  1  0
 16 33  1  0
 17 34  1  0
 20 35  1  0
 20 36  1  0
 20 37  1  0
M  END
>  <meeko>  (6) 
{"is_sidechain": false}

>  <vina_energy>  (6) 
-7.33

$$$$

     RDKit          3D

 32 33  0  0  0  0  0  0  0  0999 V2000
    9.9390    5.3700   45.2270 C   0  0  0  0  0  0  0  0  0  0  0  0
   10.9210    6.2710   44.5610 C   0  0  0  0  0  0  0  0  0  0  0  0
   12.0030    5.8000   43.8510 C   0  0  0  0  0  0  0  0  0  0  0  0
   12.9330    6.5930   43.2780 N   0  0  0  0  0  0  0  0  0  0  0  0
   12.7850    7.9200   43.4310 C   0  0  0  0  0  0  0  0  0  0  0  0
   13.7900    8.7040   42.8610 N   0  0  0  0  0  0  0  0  0  0  0  0
   13.7800    9.5010   41.7740 C   0  0  0  0  0  0  0  0  0  0  0  0
   12.7600    9.7260   40.8260 C   0  0  0  0  0  0  0  0  0  0  0  0
   13.1200   10.6090   39.8880 N   0  0  0  0  0  0  0  0  0  0  0  0
   14.3810   10.9470   40.2410 N   0  0  0  0  0  0  0  0  0  0  0  0
   15.0860   11.9240   39.4320 C   0  0  0  0  0  0  0  0  0  0  0  0
   14.5770   13.3140   39.7180 C   0  0  0  0  0  0  0  0  0  0  0  0
   14.9600   14.2820   38.8270 N   0  0  0  0  0  0  0  0  0  0  0  0
   13.8960   13.5900   40.7030 O   0  0  0  0  0  0  0  0  0  0  0  0
   14.8300   10.3020   41.3720 C   0  0  0  0  0  0  0  0  0  0  0  0
   16.1860   10.5210   41.9430 C   0  0  0  0  0  0  0  0  0  0  0  0
   11.7640    8.4750   44.1050 N   0  0  0  0  0  0  0  0  0  0  0  0
   10.8600    7.6420   44.6560 C   0  0  0  0  0  0  0  0  0  0  0  0
   10.0389    5.4617   46.3186 H   0  0  0  0  0  0  0  0  0  0  0  0
    8.9193    5.6533   44.9271 H   0  0  0  0  0  0  0  0  0  0  0  0
   10.1337    4.3298   44.9271 H   0  0  0  0  0  0  0  0  0  0  0  0
   12.1163    4.7111   43.7443 H   0  0  0  0  0  0  0  0  0  0  0  0
   14.5980    8.6440   43.4690 H   0  0  0  0  0  0  0  0  0  0  0  0
   11.7783    9.2307   40.8549 H   0  0  0  0  0  0  0  0  0  0  0  0
   16.1604   11.8775   39.6631 H   0  0  0  0  0  0  0  0  0  0  0  0
   14.9158   11.6949   38.3697 H   0  0  0  0  0  0  0  0  0  0  0  0
   15.1950   13.9950   37.8750 H   0  0  0  0  0  0  0  0  0  0  0  0
   14.5170   15.1850   38.9320 H   0  0  0  0  0  0  0  0  0  0  0  0
   16.1272   10.5115   43.0414 H   0  0  0  0  0  0  0  0  0  0  0  0
   16.8599    9.7201   41.6049 H   0  0  0  0  0  0  0  0  0  0  0  0
   16.5736   11.4934   41.6049 H   0  0  0  0  0  0  0  0  0  0  0  0
   10.0228    8.0847   45.2155 H   0  0  0  0  0  0  0  0  0  0  0  0
  1  2  1  0
  2  3  2  0
  3  4  1  0
  4  5  2  0
  5  6  1  0
  6  7  1  0
  7  8  1  0
  8  9  2  0
  9 10  1  0
 10 11  1  0
 11 12  1  0
 12 13  1  0
 12 14  2  0
 10 15  1  0
 15 16  1  0
  5 17  1  0
 17 18  2  0
 18  2  1  0
 15  7  2  0
  1 19  1  0
  1 20  1  0
  1 21  1  0
  3 22  1  0
  6 23  1  0
  8 24  1  0
 11 25  1  0
 11 26  1  0
 13 27  1  0
 13 28  1  0
 16 29  1  0
 16 30  1  0
 16 31  1  0
 18 32  1  0
M  END
>  <meeko>  (7) 
{"is_sidechain": false}

>  <vina_energy>  (7) 
-7.74

$$$$

     RDKit          3D

 32 33  0  0  0  0  0  0  0  0999 V2000
    9.7670    5.8860   45.2510 C   0  0  0  0  0  0  0  0  0  0  0  0
   10.8880    6.5570   44.5390 C   0  0  0  0  0  0  0  0  0  0  0  0
   11.0250    7.9240   44.4900 C   0  0  0  0  0  0  0  0  0  0  0  0
   12.0120    8.5560   43.8260 N   0  0  0  0  0  0  0  0  0  0  0  0
   12.9000    7.7930   43.1690 C   0  0  0  0  0  0  0  0  0  0  0  0
   13.9590    8.3550   42.4550 N   0  0  0  0  0  0  0  0  0  0  0  0
   14.0310    9.4750   41.7100 C   0  0  0  0  0  0  0  0  0  0  0  0
   13.0870   10.0330   40.8270 C   0  0  0  0  0  0  0  0  0  0  0  0
   13.5180   11.1690   40.2720 N   0  0  0  0  0  0  0  0  0  0  0  0
   14.7450   11.3380   40.8070 N   0  0  0  0  0  0  0  0  0  0  0  0
   15.5160   12.4980   40.3860 C   0  0  0  0  0  0  0  0  0  0  0  0
   14.8680   13.2310   39.2190 C   0  0  0  0  0  0  0  0  0  0  0  0
   14.0470   14.3090   39.6740 O   0  0  0  0  0  0  0  0  0  0  0  0
   15.1110   10.3360   41.6770 C   0  0  0  0  0  0  0  0  0  0  0  0
   16.4080   10.3080   42.3960 C   0  0  0  0  0  0  0  0  0  0  0  0
   12.8410    6.4500   43.1420 N   0  0  0  0  0  0  0  0  0  0  0  0
   11.8360    5.8640   43.8230 C   0  0  0  0  0  0  0  0  0  0  0  0
    9.9166    5.9755   46.3371 H   0  0  0  0  0  0  0  0  0  0  0  0
    8.8166    6.3638   44.9711 H   0  0  0  0  0  0  0  0  0  0  0  0
    9.7391    4.8226   44.9711 H   0  0  0  0  0  0  0  0  0  0  0  0
   10.2851    8.5379   45.0245 H   0  0  0  0  0  0  0  0  0  0  0  0
   14.7640    7.7590   42.5940 H   0  0  0  0  0  0  0  0  0  0  0  0
   12.1049    9.5839   40.6177 H   0  0  0  0  0  0  0  0  0  0  0  0
   15.6029   13.1919   41.2351 H   0  0  0  0  0  0  0  0  0  0  0  0
   16.5029   12.1433   40.0540 H   0  0  0  0  0  0  0  0  0  0  0  0
   15.6567   13.6324   38.5656 H   0  0  0  0  0  0  0  0  0  0  0  0
   14.2335   12.5188   38.6710 H   0  0  0  0  0  0  0  0  0  0  0  0
   14.6300   14.9850   40.0610 H   0  0  0  0  0  0  0  0  0  0  0  0
   16.2260   10.3119   43.4808 H   0  0  0  0  0  0  0  0  0  0  0  0
   16.9606    9.3977   42.1202 H   0  0  0  0  0  0  0  0  0  0  0  0
   16.9993   11.1936   42.1202 H   0  0  0  0  0  0  0  0  0  0  0  0
   11.7702    4.7661   43.8050 H   0  0  0  0  0  0  0  0  0  0  0  0
  1  2  1  0
  2  3  2  0
  3  4  1  0
  4  5  2  0
  5  6  1  0
  6  7  1  0
  7  8  1  0
  8  9  2  0
  9 10  1  0
 10 11  1  0
 11 12  1  0
 12 13  1  0
 10 14  1  0
 14 15  1  0
  5 16  1  0
 16 17  2  0
 17  2  1  0
 14  7  2  0
  1 18  1  0
  1 19  1  0
  1 20  1  0
  3 21  1  0
  6 22  1  0
  8 23  1  0
 11 24  1  0
 11 25  1  0
 12 26  1  0
 12 27  1  0
 13 28  1  0
 15 29  1  0
 15 30  1  0
 15 31  1  0
 17 32  1  0
M  END
>  <meeko>  (8) 
{"is_sidechain": false}

>  <vina_energy>  (8) 
-7.24

$$$$

     RDKit          3D

 30 31  0  0  0  0  0  0  0  0999 V2000
    9.8540    5.3930   45.1770 C   0  0  0  0  0  0  0  0  0  0  0  0
   10.9000    6.2690   44.5850 C   0  0  0  0  0  0  0  0  0  0  0  0
   11.9770    5.7760   43.8870 C   0  0  0  0  0  0  0  0  0  0  0  0
   12.9200    6.5500   43.3130 N   0  0  0  0  0  0  0  0  0  0  0  0
   12.7820    7.8830   43.4340 C   0  0  0  0  0  0  0  0  0  0  0  0
   13.7840    8.6430   42.8340 N   0  0  0  0  0  0  0  0  0  0  0  0
   13.7600    9.4740   41.7730 C   0  0  0  0  0  0  0  0  0  0  0  0
   12.7460    9.6940   40.8230 C   0  0  0  0  0  0  0  0  0  0  0  0
   13.0990   10.5840   39.8940 N   0  0  0  0  0  0  0  0  0  0  0  0
   14.3220   11.0170   40.3060 N   0  0  0  0  0  0  0  0  0  0  0  0
   15.0290   11.9610   39.4630 C   0  0  0  0  0  0  0  0  0  0  0  0
   14.6180   13.3970   39.6950 C   0  0  0  0  0  0  0  0  0  0  0  0
   13.9080   13.6330   40.7120 O   0  0  0  0  0  0  0  0  0  0  0  0
   15.0070   14.2160   38.8060 O   0  0  0  0  0  0  0  0  0  0  0  0
   14.7960   10.3020   41.3910 C   0  0  0  0  0  0  0  0  0  0  0  0
   16.1560   10.4910   41.9550 C   0  0  0  0  0  0  0  0  0  0  0  0
   11.7520    8.4550   44.0780 N   0  0  0  0  0  0  0  0  0  0  0  0
   10.8350    7.6420   44.6330 C   0  0  0  0  0  0  0  0  0  0  0  0
    9.9126    5.4421   46.2743 H   0  0  0  0  0  0  0  0  0  0  0  0
    8.8612    5.7331   44.8473 H   0  0  0  0  0  0  0  0  0  0  0  0
   10.0145    4.3559   44.8473 H   0  0  0  0  0  0  0  0  0  0  0  0
   12.0752    4.6846   43.7911 H   0  0  0  0  0  0  0  0  0  0  0  0
   14.6290    8.5330   43.3780 H   0  0  0  0  0  0  0  0  0  0  0  0
   11.7696    9.1879   40.8439 H   0  0  0  0  0  0  0  0  0  0  0  0
   16.1065   11.8697   39.6646 H   0  0  0  0  0  0  0  0  0  0  0  0
   14.7792   11.7159   38.4202 H   0  0  0  0  0  0  0  0  0  0  0  0
   16.1016   10.4834   43.0536 H   0  0  0  0  0  0  0  0  0  0  0  0
   16.8107    9.6752   41.6147 H   0  0  0  0  0  0  0  0  0  0  0  0
   16.5635   11.4544   41.6147 H   0  0  0  0  0  0  0  0  0  0  0  0
    9.9835    8.1022   45.1557 H   0  0  0  0  0  0  0  0  0  0  0  0
  1  2  1  0
  2  3  2  0
  3  4  1  0
  4  5  2  0
  5  6  1  0
  6  7  1  0
  7  8  1  0
  8  9  2  0
  9 10  1  0
 10 11  1  0
 11 12  1  0
 12 13  2  0
 12 14  1  0
 10 15  1  0
 15 16  1  0
  5 17  1  0
 17 18  2  0
 18  2  1  0
 15  7  2  0
  1 19  1  0
  1 20  1  0
  1 21  1  0
  3 22  1  0
  6 23  1  0
  8 24  1  0
 11 25  1  0
 11 26  1  0
 16 27  1  0
 16 28  1  0
 16 29  1  0
 18 30  1  0
M  CHG  1  14  -1
M  END
>  <meeko>  (9) 
{"is_sidechain": false}

>  <vina_energy>  (9) 
-7.75

$$$$

     RDKit          3D

 36 37  0  0  0  0  0  0  0  0999 V2000
    9.7310    5.8820   45.3420 C   0  0  0  0  0  0  0  0  0  0  0  0
   10.8240    6.5650   44.5970 C   0  0  0  0  0  0  0  0  0  0  0  0
   10.9750    7.9320   44.5850 C   0  0  0  0  0  0  0  0  0  0  0  0
   11.9750    8.5690   43.9480 N   0  0  0  0  0  0  0  0  0  0  0  0
   12.8780    7.8160   43.3000 C   0  0  0  0  0  0  0  0  0  0  0  0
   13.9470    8.3860   42.6120 N   0  0  0  0  0  0  0  0  0  0  0  0
   14.0130    9.4630   41.8030 C   0  0  0  0  0  0  0  0  0  0  0  0
   13.0650    9.9690   40.8930 C   0  0  0  0  0  0  0  0  0  0  0  0
   13.4910   11.0690   40.2660 N   0  0  0  0  0  0  0  0  0  0  0  0
   14.7230   11.2720   40.7860 N   0  0  0  0  0  0  0  0  0  0  0  0
   15.5150   12.4020   40.3200 C   0  0  0  0  0  0  0  0  0  0  0  0
   14.7750   13.2290   39.2690 C   0  0  0  0  0  0  0  0  0  0  0  0
   15.5340   14.4990   38.8970 C   0  0  0  0  0  0  0  0  0  0  0  0
   17.0580   14.3570   38.8210 C   0  0  0  0  0  0  0  0  0  0  0  0
   17.5060   13.6630   37.8680 O   0  0  0  0  0  0  0  0  0  0  0  0
   17.6820   14.9700   39.7320 O   0  0  0  0  0  0  0  0  0  0  0  0
   15.0880   10.3240   41.7160 C   0  0  0  0  0  0  0  0  0  0  0  0
   16.4000   10.3550   42.4140 C   0  0  0  0  0  0  0  0  0  0  0  0
   12.8230    6.4720   43.2670 N   0  0  0  0  0  0  0  0  0  0  0  0
   11.8040    5.8790   43.9190 C   0  0  0  0  0  0  0  0  0  0  0  0
    9.9019    5.9888   46.4234 H   0  0  0  0  0  0  0  0  0  0  0  0
    8.7658    6.3379   45.0766 H   0  0  0  0  0  0  0  0  0  0  0  0
    9.7177    4.8146   45.0766 H   0  0  0  0  0  0  0  0  0  0  0  0
   10.2358    8.5398   45.1273 H   0  0  0  0  0  0  0  0  0  0  0  0
   14.7740    7.8440   42.8170 H   0  0  0  0  0  0  0  0  0  0  0  0
   12.0814    9.5089   40.7176 H   0  0  0  0  0  0  0  0  0  0  0  0
   15.7502   13.0482   41.1785 H   0  0  0  0  0  0  0  0  0  0  0  0
   16.4301   12.0055   39.8560 H   0  0  0  0  0  0  0  0  0  0  0  0
   14.6436   12.6169   38.3645 H   0  0  0  0  0  0  0  0  0  0  0  0
   13.8054   13.5271   39.6946 H   0  0  0  0  0  0  0  0  0  0  0  0
   15.1749   14.8325   37.9122 H   0  0  0  0  0  0  0  0  0  0  0  0
   15.3371   15.2172   39.7065 H   0  0  0  0  0  0  0  0  0  0  0  0
   16.2368   10.3511   43.5018 H   0  0  0  0  0  0  0  0  0  0  0  0
   16.9883    9.4705   42.1284 H   0  0  0  0  0  0  0  0  0  0  0  0
   16.9459   11.2663   42.1284 H   0  0  0  0  0  0  0  0  0  0  0  0
   11.7529    4.7802   43.9083 H   0  0  0  0  0  0  0  0  0  0  0  0
  1  2  1  0
  2  3  2  0
  3  4  1  0
  4  5  2  0
  5  6  1  0
  6  7  1  0
  7  8  1  0
  8  9  2  0
  9 10  1  0
 10 11  1  0
 11 12  1  0
 12 13  1  0
 13 14  1  0
 14 15  2  0
 14 16  1  0
 10 17  1  0
 17 18  1  0
  5 19  1  0
 19 20  2  0
 20  2  1  0
 17  7  2  0
  1 21  1  0
  1 22  1  0
  1 23  1  0
  3 24  1  0
  6 25  1  0
  8 26  1  0
 11 27  1  0
 11 28  1  0
 12 29  1  0
 12 30  1  0
 13 31  1  0
 13 32  1  0
 18 33  1  0
 18 34  1  0
 18 35  1  0
 20 36  1  0
M  CHG  1  16  -1
M  END
>  <meeko>  (10) 
{"is_sidechain": false}

>  <vina_energy>  (10) 
-7.21

$$$$

     RDKit          3D

 31 32  0  0  0  0  0  0  0  0999 V2000
    9.9000    5.9630   45.3430 C   0  0  0  0  0  0  0  0  0  0  0  0
   10.9590    6.6510   44.5580 C   0  0  0  0  0  0  0  0  0  0  0  0
   11.1330    8.0150   44.5790 C   0  0  0  0  0  0  0  0  0  0  0  0
   12.1050    8.6590   43.9020 N   0  0  0  0  0  0  0  0  0  0  0  0
   12.9490    7.9150   43.1730 C   0  0  0  0  0  0  0  0  0  0  0  0
   14.0130    8.4700   42.4590 N   0  0  0  0  0  0  0  0  0  0  0  0
   14.1120    9.5420   41.6440 C   0  0  0  0  0  0  0  0  0  0  0  0
   13.1170    9.9420   40.7090 C   0  0  0  0  0  0  0  0  0  0  0  0
   11.8160    9.2910   40.4180 C   0  0  0  0  0  0  0  0  0  0  0  0
   13.4800   11.0390   40.0390 N   0  0  0  0  0  0  0  0  0  0  0  0
   14.6930   11.3370   40.5380 N   0  0  0  0  0  0  0  0  0  0  0  0
   15.4010   12.4770   40.0050 C   0  0  0  0  0  0  0  0  0  0  0  0
   15.0980   10.5010   41.5500 C   0  0  0  0  0  0  0  0  0  0  0  0
   16.3500   10.7290   42.3160 C   0  0  0  0  0  0  0  0  0  0  0  0
   12.8780    6.5730   43.1130 N   0  0  0  0  0  0  0  0  0  0  0  0
   11.8880    5.9730   43.8050 C   0  0  0  0  0  0  0  0  0  0  0  0
   10.0980    6.0916   46.4174 H   0  0  0  0  0  0  0  0  0  0  0  0
    8.9200    6.3974   45.0962 H   0  0  0  0  0  0  0  0  0  0  0  0
    9.8986    4.8911   45.0962 H   0  0  0  0  0  0  0  0  0  0  0  0
   10.4381    8.6161   45.1838 H   0  0  0  0  0  0  0  0  0  0  0  0
   14.8470    8.0490   42.8500 H   0  0  0  0  0  0  0  0  0  0  0  0
   11.3126    9.0391   41.3630 H   0  0  0  0  0  0  0  0  0  0  0  0
   11.1835    9.9788   39.8376 H   0  0  0  0  0  0  0  0  0  0  0  0
   11.9873    8.3724   39.8376 H   0  0  0  0  0  0  0  0  0  0  0  0
   15.7828   13.0917   40.8335 H   0  0  0  0  0  0  0  0  0  0  0  0
   16.2428   12.1300   39.3877 H   0  0  0  0  0  0  0  0  0  0  0  0
   14.7168   13.0777   39.3877 H   0  0  0  0  0  0  0  0  0  0  0  0
   16.1329   10.6895   43.3936 H   0  0  0  0  0  0  0  0  0  0  0  0
   17.0831    9.9496   42.0608 H   0  0  0  0  0  0  0  0  0  0  0  0
   16.7612   11.7168   42.0608 H   0  0  0  0  0  0  0  0  0  0  0  0
   11.8199    4.8759   43.7644 H   0  0  0  0  0  0  0  0  0  0  0  0
  1  2  1  0
  2  3  2  0
  3  4  1  0
  4  5  2  0
  5  6  1  0
  6  7  1  0
  7  8  1  0
  8  9  1  0
  8 10  2  0
 10 11  1  0
 11 12  1  0
 11 13  1  0
 13 14  1  0
  5 15  1  0
 15 16  2  0
 16  2  1  0
 13  7  2  0
  1 17  1  0
  1 18  1  0
  1 19  1  0
  3 20  1  0
  6 21  1  0
  9 22  1  0
  9 23  1  0
  9 24  1  0
 12 25  1  0
 12 26  1  0
 12 27  1  0
 14 28  1  0
 14 29  1  0
 14 30  1  0
 16 31  1  0
M  END
>  <meeko>  (11) 
{"is_sidechain": false}

>  <vina_energy>  (11) 
-7.81

$$$$

     RDKit          3D

 31 32  0  0  0  0  0  0  0  0999 V2000
   16.3540   12.0870   42.0520 C   0  0  0  0  0  0  0  0  0  0  0  0
   16.0740   10.6110   41.8140 C   0  0  0  0  0  0  0  0  0  0  0  0
   14.6980   10.3910   41.2820 C   0  0  0  0  0  0  0  0  0  0  0  0
   13.6920    9.5360   41.6870 C   0  0  0  0  0  0  0  0  0  0  0  0
   13.7830    8.6700   42.7150 N   0  0  0  0  0  0  0  0  0  0  0  0
   12.8130    7.9000   43.3560 C   0  0  0  0  0  0  0  0  0  0  0  0
   12.9510    6.5710   43.2130 N   0  0  0  0  0  0  0  0  0  0  0  0
   12.0370    5.7870   43.8180 C   0  0  0  0  0  0  0  0  0  0  0  0
   10.9920    6.2700   44.5720 C   0  0  0  0  0  0  0  0  0  0  0  0
    9.9750    5.3830   45.2000 C   0  0  0  0  0  0  0  0  0  0  0  0
   10.9290    7.6410   44.6450 C   0  0  0  0  0  0  0  0  0  0  0  0
   11.8190    8.4650   44.0580 N   0  0  0  0  0  0  0  0  0  0  0  0
   12.6210    9.7840   40.8050 C   0  0  0  0  0  0  0  0  0  0  0  0
   12.9140   10.7240   39.9030 N   0  0  0  0  0  0  0  0  0  0  0  0
   14.1780   11.0720   40.2060 N   0  0  0  0  0  0  0  0  0  0  0  0
   14.8290   12.0890   39.4120 C   0  0  0  0  0  0  0  0  0  0  0  0
   16.3913   12.2834   43.1337 H   0  0  0  0  0  0  0  0  0  0  0  0
   17.3190   12.3551   41.5972 H   0  0  0  0  0  0  0  0  0  0  0  0
   15.5542   12.6899   41.5972 H   0  0  0  0  0  0  0  0  0  0  0  0
   16.8035   10.2219   41.0884 H   0  0  0  0  0  0  0  0  0  0  0  0
   16.1583   10.0856   42.7768 H   0  0  0  0  0  0  0  0  0  0  0  0
   14.6680    8.4740   43.1630 H   0  0  0  0  0  0  0  0  0  0  0  0
   12.1318    4.6972   43.7024 H   0  0  0  0  0  0  0  0  0  0  0  0
   10.0542    5.4521   46.2950 H   0  0  0  0  0  0  0  0  0  0  0  0
    8.9692    5.6976   44.8846 H   0  0  0  0  0  0  0  0  0  0  0  0
   10.1499    4.3438   44.8846 H   0  0  0  0  0  0  0  0  0  0  0  0
   10.1039    8.0919   45.2159 H   0  0  0  0  0  0  0  0  0  0  0  0
   11.6537    9.2625   40.8541 H   0  0  0  0  0  0  0  0  0  0  0  0
   15.3014   12.8269   40.0771 H   0  0  0  0  0  0  0  0  0  0  0  0
   15.5970   11.6229   38.7773 H   0  0  0  0  0  0  0  0  0  0  0  0
   14.0841   12.5913   38.7773 H   0  0  0  0  0  0  0  0  0  0  0  0
  1  2  1  0
  2  3  1  0
  3  4  2  0
  4  5  1  0
  5  6  1  0
  6  7  2  0
  7  8  1  0
  8  9  2  0
  9 10  1  0
  9 11  1  0
 11 12  2  0
  4 13  1  0
 13 14  2  0
 14 15  1  0
 15 16  1  0
 15  3  1  0
 12  6  1  0
  1 17  1  0
  1 18  1  0
  1 19  1  0
  2 20  1  0
  2 21  1  0
  5 22  1  0
  8 23  1  0
 10 24  1  0
 10 25  1  0
 10 26  1  0
 11 27  1  0
 13 28  1  0
 16 29  1  0
 16 30  1  0
 16 31  1  0
M  END
>  <meeko>  (12) 
{"is_sidechain": false}

>  <vina_energy>  (12) 
-7.49

$$$$

     RDKit          3D

 34 35  0  0  0  0  0  0  0  0999 V2000
   17.4960   12.8040   41.5730 C   0  0  0  0  0  0  0  0  0  0  0  0
   16.1730   12.2500   42.0770 C   0  0  0  0  0  0  0  0  0  0  0  0
   16.0240   10.7660   41.7420 C   0  0  0  0  0  0  0  0  0  0  0  0
   14.6650   10.4600   41.2050 C   0  0  0  0  0  0  0  0  0  0  0  0
   13.7100    9.5500   41.6130 C   0  0  0  0  0  0  0  0  0  0  0  0
   13.8430    8.7090   42.6580 N   0  0  0  0  0  0  0  0  0  0  0  0
   12.9230    7.8650   43.2800 C   0  0  0  0  0  0  0  0  0  0  0  0
   13.0190    6.5300   43.1870 N   0  0  0  0  0  0  0  0  0  0  0  0
   12.0820    5.7950   43.8190 C   0  0  0  0  0  0  0  0  0  0  0  0
   11.0400    6.3370   44.5350 C   0  0  0  0  0  0  0  0  0  0  0  0
   10.0400    5.5020   45.2550 C   0  0  0  0  0  0  0  0  0  0  0  0
   11.0370    7.7120   44.5840 C   0  0  0  0  0  0  0  0  0  0  0  0
   11.9520    8.4880   43.9690 N   0  0  0  0  0  0  0  0  0  0  0  0
   12.6360    9.7160   40.7170 C   0  0  0  0  0  0  0  0  0  0  0  0
   12.8790   10.6610   39.8040 N   0  0  0  0  0  0  0  0  0  0  0  0
   14.1100   11.1030   40.1240 N   0  0  0  0  0  0  0  0  0  0  0  0
   14.7010   12.1520   39.3270 C   0  0  0  0  0  0  0  0  0  0  0  0
   18.1322   13.0704   42.4299 H   0  0  0  0  0  0  0  0  0  0  0  0
   18.0034   12.0428   40.9622 H   0  0  0  0  0  0  0  0  0  0  0  0
   17.3096   13.6997   40.9622 H   0  0  0  0  0  0  0  0  0  0  0  0
   16.1249   12.3768   43.1686 H   0  0  0  0  0  0  0  0  0  0  0  0
   15.3579   12.7992   41.5831 H   0  0  0  0  0  0  0  0  0  0  0  0
   16.7763   10.4926   40.9875 H   0  0  0  0  0  0  0  0  0  0  0  0
   16.1681   10.1874   42.6664 H   0  0  0  0  0  0  0  0  0  0  0  0
   14.7220    8.6080   43.1460 H   0  0  0  0  0  0  0  0  0  0  0  0
   12.1549    4.6991   43.7586 H   0  0  0  0  0  0  0  0  0  0  0  0
   10.1787    5.6178   46.3401 H   0  0  0  0  0  0  0  0  0  0  0  0
    9.0255    5.8250   44.9785 H   0  0  0  0  0  0  0  0  0  0  0  0
   10.1768    4.4461   44.9785 H   0  0  0  0  0  0  0  0  0  0  0  0
   10.2409    8.2075   45.1590 H   0  0  0  0  0  0  0  0  0  0  0  0
   11.7036    9.1342   40.7635 H   0  0  0  0  0  0  0  0  0  0  0  0
   15.1321   12.9171   39.9894 H   0  0  0  0  0  0  0  0  0  0  0  0
   15.4931   11.7282   38.6922 H   0  0  0  0  0  0  0  0  0  0  0  0
   13.9281   12.6099   38.6922 H   0  0  0  0  0  0  0  0  0  0  0  0
  1  2  1  0
  2  3  1  0
  3  4  1  0
  4  5  2  0
  5  6  1  0
  6  7  1  0
  7  8  2  0
  8  9  1  0
  9 10  2  0
 10 11  1  0
 10 12  1  0
 12 13  2  0
  5 14  1  0
 14 15  2  0
 15 16  1  0
 16 17  1  0
 16  4  1  0
 13  7  1  0
  1 18  1  0
  1 19  1  0
  1 20  1  0
  2 21  1  0
  2 22  1  0
  3 23  1  0
  3 24  1  0
  6 25  1  0
  9 26  1  0
 11 27  1  0
 11 28  1  0
 11 29  1  0
 12 30  1  0
 14 31  1  0
 17 32  1  0
 17 33  1  0
 17 34  1  0
M  END
>  <meeko>  (13) 
{"is_sidechain": false}

>  <vina_energy>  (13) 
-7.26

$$$$

     RDKit          3D

 30 31  0  0  0  0  0  0  0  0999 V2000
   10.2110    5.6070   45.2010 C   0  0  0  0  0  0  0  0  0  0  0  0
   11.1700    6.4830   44.4780 C   0  0  0  0  0  0  0  0  0  0  0  0
   11.1220    7.8550   44.5470 C   0  0  0  0  0  0  0  0  0  0  0  0
   11.9990    8.6670   43.9310 N   0  0  0  0  0  0  0  0  0  0  0  0
   12.9920    8.1010   43.2240 C   0  0  0  0  0  0  0  0  0  0  0  0
   13.8870    8.9650   42.5970 N   0  0  0  0  0  0  0  0  0  0  0  0
   13.7400    9.7550   41.5140 C   0  0  0  0  0  0  0  0  0  0  0  0
   12.7990    9.7190   40.4680 C   0  0  0  0  0  0  0  0  0  0  0  0
   13.0220   10.6610   39.5440 N   0  0  0  0  0  0  0  0  0  0  0  0
   14.1410   11.2740   39.9940 N   0  0  0  0  0  0  0  0  0  0  0  0
   14.7480   12.3100   39.1940 C   0  0  0  0  0  0  0  0  0  0  0  0
   14.5670   10.8180   41.2140 C   0  0  0  0  0  0  0  0  0  0  0  0
   15.7080   11.4170   41.9860 C   0  0  0  0  0  0  0  0  0  0  0  0
   16.8860   10.4380   42.1000 C   0  0  0  0  0  0  0  0  0  0  0  0
   16.8920    9.7240   43.1490 O   0  0  0  0  0  0  0  0  0  0  0  0
   17.7190   10.4860   41.1490 O   0  0  0  0  0  0  0  0  0  0  0  0
   13.1210    6.7650   43.1050 N   0  0  0  0  0  0  0  0  0  0  0  0
   12.2190    5.9910   43.7370 C   0  0  0  0  0  0  0  0  0  0  0  0
   10.3469    5.7311   46.2855 H   0  0  0  0  0  0  0  0  0  0  0  0
    9.1825    5.8840   44.9263 H   0  0  0  0  0  0  0  0  0  0  0  0
   10.3940    4.5577   44.9263 H   0  0  0  0  0  0  0  0  0  0  0  0
   10.3190    8.3157   45.1410 H   0  0  0  0  0  0  0  0  0  0  0  0
   14.8440    8.7800   42.9420 H   0  0  0  0  0  0  0  0  0  0  0  0
   11.9714    8.9962   40.4158 H   0  0  0  0  0  0  0  0  0  0  0  0
   15.1930   13.0694   39.8538 H   0  0  0  0  0  0  0  0  0  0  0  0
   15.5318   11.8712   38.5592 H   0  0  0  0  0  0  0  0  0  0  0  0
   13.9820   12.7792   38.5592 H   0  0  0  0  0  0  0  0  0  0  0  0
   16.0486   12.3277   41.4715 H   0  0  0  0  0  0  0  0  0  0  0  0
   15.3534   11.6499   43.0009 H   0  0  0  0  0  0  0  0  0  0  0  0
   12.3274    4.8994   43.6559 H   0  0  0  0  0  0  0  0  0  0  0  0
  1  2  1  0
  2  3  2  0
  3  4  1  0
  4  5  2  0
  5  6  1  0
  6  7  1  0
  7  8  1  0
  8  9  2  0
  9 10  1  0
 10 11  1  0
 10 12  1  0
 12 13  1  0
 13 14  1  0
 14 15  2  0
 14 16  1  0
  5 17  1  0
 17 18  2  0
 18  2  1  0
 12  7  2  0
  1 19  1  0
  1 20  1  0
  1 21  1  0
  3 22  1  0
  6 23  1  0
  8 24  1  0
 11 25  1  0
 11 26  1  0
 11 27  1  0
 13 28  1  0
 13 29  1  0
 18 30  1  0
M  CHG  1  16  -1
M  END
>  <meeko>  (14) 
{"is_sidechain": false}

>  <vina_energy>  (14) 
-7.50

$$$$

     RDKit          3D

 35 37  0  0  0  0  0  0  0  0999 V2000
   17.6670   14.7600   39.3250 C   0  0  0  0  0  0  0  0  0  0  0  0
   18.6780   14.3460   40.3280 C   0  0  0  0  0  0  0  0  0  0  0  0
   18.5620   13.7470   41.5660 C   0  0  0  0  0  0  0  0  0  0  0  0
   17.4010   13.3930   42.1510 N   0  0  0  0  0  0  0  0  0  0  0  0
   16.4800   12.3960   41.8320 C   0  0  0  0  0  0  0  0  0  0  0  0
   16.6260   11.1360   42.2670 N   0  0  0  0  0  0  0  0  0  0  0  0
   15.6870   10.2390   41.9100 C   0  0  0  0  0  0  0  0  0  0  0  0
   14.5980   10.5450   41.1240 C   0  0  0  0  0  0  0  0  0  0  0  0
   13.5740    9.5320   40.7320 C   0  0  0  0  0  0  0  0  0  0  0  0
   13.0640    8.8150   41.8900 N   0  0  0  0  0  0  0  0  0  0  0  0
   12.8760    7.4640   42.0010 C   0  0  0  0  0  0  0  0  0  0  0  0
   12.3860    7.2710   43.2640 C   0  0  0  0  0  0  0  0  0  0  0  0
   11.8990    5.6670   44.0800 Br  0  0  0  0  0  0  0  0  0  0  0  0
   12.3160    8.5410   43.8500 C   0  0  0  0  0  0  0  0  0  0  0  0
   12.7390    9.4950   43.0130 N   0  0  0  0  0  0  0  0  0  0  0  0
   14.5360   11.8610   40.7260 C   0  0  0  0  0  0  0  0  0  0  0  0
   15.4500   12.7910   41.0620 N   0  0  0  0  0  0  0  0  0  0  0  0
   19.8860   13.6070   42.0310 C   0  0  0  0  0  0  0  0  0  0  0  0
   20.7820   14.0790   41.1610 N   0  0  0  0  0  0  0  0  0  0  0  0
   20.0280   14.5280   40.1420 N   0  0  0  0  0  0  0  0  0  0  0  0
   20.6780   15.1230   38.9960 C   0  0  0  0  0  0  0  0  0  0  0  0
   16.7680   15.1281   39.8410 H   0  0  0  0  0  0  0  0  0  0  0  0
   18.0819   15.5606   38.6950 H   0  0  0  0  0  0  0  0  0  0  0  0
   17.4012   13.8983   38.6950 H   0  0  0  0  0  0  0  0  0  0  0  0
   17.0560   13.8720   42.9720 H   0  0  0  0  0  0  0  0  0  0  0  0
   15.7958    9.2039   42.2661 H   0  0  0  0  0  0  0  0  0  0  0  0
   12.7385   10.0433   40.2315 H   0  0  0  0  0  0  0  0  0  0  0  0
   14.0484    8.8047   40.0568 H   0  0  0  0  0  0  0  0  0  0  0  0
   13.0760    6.6972   41.2381 H   0  0  0  0  0  0  0  0  0  0  0  0
   11.9574    8.7307   44.8725 H   0  0  0  0  0  0  0  0  0  0  0  0
   13.6895   12.1716   40.0960 H   0  0  0  0  0  0  0  0  0  0  0  0
   20.1505   13.1597   43.0005 H   0  0  0  0  0  0  0  0  0  0  0  0
   21.4493   15.8290   39.3375 H   0  0  0  0  0  0  0  0  0  0  0  0
   21.1461   14.3339   38.3892 H   0  0  0  0  0  0  0  0  0  0  0  0
   19.9332   15.6589   38.3892 H   0  0  0  0  0  0  0  0  0  0  0  0
  1  2  1  0
  2  3  2  0
  3  4  1  0
  4  5  1  0
  5  6  2  0
  6  7  1  0
  7  8  2  0
  8  9  1  0
  9 10  1  0
 10 11  1  0
 11 12  2  0
 12 13  1  0
 12 14  1  0
 14 15  2  0
  8 16  1  0
 16 17  2  0
  3 18  1  0
 18 19  2  0
 19 20  1  0
 20 21  1  0
 20  2  1  0
 17  5  1  0
 15 10  1  0
  1 22  1  0
  1 23  1  0
  1 24  1  0
  4 25  1  0
  7 26  1  0
  9 27  1  0
  9 28  1  0
 11 29  1  0
 14 30  1  0
 16 31  1  0
 18 32  1  0
 21 33  1  0
 21 34  1  0
 21 35  1  0
M  END
>  <meeko>  (15) 
{"is_sidechain": false}

>  <vina_energy>  (15) 
-6.23

$$$$

     RDKit          3D

 31 32  0  0  0  0  0  0  0  0999 V2000
   10.1140    4.5320   45.1560 C   0  0  0  0  0  0  0  0  0  0  0  0
   10.0250    6.0390   45.3400 C   0  0  0  0  0  0  0  0  0  0  0  0
   11.1100    6.7570   44.6030 C   0  0  0  0  0  0  0  0  0  0  0  0
   12.0570    6.1040   43.8480 C   0  0  0  0  0  0  0  0  0  0  0  0
   13.0340    6.7300   43.1610 N   0  0  0  0  0  0  0  0  0  0  0  0
   13.0670    8.0720   43.2240 C   0  0  0  0  0  0  0  0  0  0  0  0
   14.0950    8.6750   42.4990 N   0  0  0  0  0  0  0  0  0  0  0  0
   14.0760    9.6740   41.5960 C   0  0  0  0  0  0  0  0  0  0  0  0
   13.0980   10.0020   40.6360 C   0  0  0  0  0  0  0  0  0  0  0  0
   13.4360   11.0740   39.9120 N   0  0  0  0  0  0  0  0  0  0  0  0
   14.6360   11.4260   40.4100 N   0  0  0  0  0  0  0  0  0  0  0  0
   15.3180   12.5710   39.8530 C   0  0  0  0  0  0  0  0  0  0  0  0
   15.0700   10.6180   41.4350 C   0  0  0  0  0  0  0  0  0  0  0  0
   16.3610   10.8320   42.1320 C   0  0  0  0  0  0  0  0  0  0  0  0
   12.1830    8.7970   43.9270 N   0  0  0  0  0  0  0  0  0  0  0  0
   11.2260    8.1280   44.5970 C   0  0  0  0  0  0  0  0  0  0  0  0
   10.1429    4.0434   46.1411 H   0  0  0  0  0  0  0  0  0  0  0  0
    9.2352    4.1783   44.5969 H   0  0  0  0  0  0  0  0  0  0  0  0
   11.0283    4.2842   44.5969 H   0  0  0  0  0  0  0  0  0  0  0  0
    9.0509    6.3859   44.9649 H   0  0  0  0  0  0  0  0  0  0  0  0
   10.1389    6.2583   46.4119 H   0  0  0  0  0  0  0  0  0  0  0  0
   12.0146    5.0058   43.8021 H   0  0  0  0  0  0  0  0  0  0  0  0
   14.9560    8.2140   42.7630 H   0  0  0  0  0  0  0  0  0  0  0  0
   12.1626    9.4399   40.4979 H   0  0  0  0  0  0  0  0  0  0  0  0
   15.6958   13.2052   40.6685 H   0  0  0  0  0  0  0  0  0  0  0  0
   16.1604   12.2303   39.2332 H   0  0  0  0  0  0  0  0  0  0  0  0
   14.6172   13.1495   39.2332 H   0  0  0  0  0  0  0  0  0  0  0  0
   16.1993   10.8052   43.2197 H   0  0  0  0  0  0  0  0  0  0  0  0
   17.0676   10.0387   41.8467 H   0  0  0  0  0  0  0  0  0  0  0  0
   16.7739   11.8108   41.8467 H   0  0  0  0  0  0  0  0  0  0  0  0
   10.4935    8.7119   45.1737 H   0  0  0  0  0  0  0  0  0  0  0  0
  1  2  1  0
  2  3  1  0
  3  4  2  0
  4  5  1  0
  5  6  2  0
  6  7  1  0
  7  8  1  0
  8  9  1  0
  9 10  2  0
 10 11  1  0
 11 12  1  0
 11 13  1  0
 13 14  1  0
  6 15  1  0
 15 16  2  0
 16  3  1  0
 13  8  2  0
  1 17  1  0
  1 18  1  0
  1 19  1  0
  2 20  1  0
  2 21  1  0
  4 22  1  0
  7 23  1  0
  9 24  1  0
 12 25  1  0
 12 26  1  0
 12 27  1  0
 14 28  1  0
 14 29  1  0
 14 30  1  0
 16 31  1  0
M  END
>  <meeko>  (16) 
{"is_sidechain": false}

>  <vina_energy>  (16) 
-7.58

$$$$

     RDKit          3D

 35 37  0  0  0  0  0  0  0  0999 V2000
   16.3560   10.4120   42.0910 C   0  0  0  0  0  0  0  0  0  0  0  0
   15.7890   11.4010   41.1430 C   0  0  0  0  0  0  0  0  0  0  0  0
   14.6770   11.3670   40.3260 C   0  0  0  0  0  0  0  0  0  0  0  0
   13.8190   10.3330   40.2270 N   0  0  0  0  0  0  0  0  0  0  0  0
   13.3490    9.4340   41.1850 C   0  0  0  0  0  0  0  0  0  0  0  0
   13.2180    8.1660   40.7610 N   0  0  0  0  0  0  0  0  0  0  0  0
   12.7660    7.2610   41.6540 C   0  0  0  0  0  0  0  0  0  0  0  0
   12.4300    7.5650   42.9530 C   0  0  0  0  0  0  0  0  0  0  0  0
   11.9460    6.5400   43.9270 C   0  0  0  0  0  0  0  0  0  0  0  0
   10.4860    6.7330   44.2170 C   0  0  0  0  0  0  0  0  0  0  0  0
    9.7660    5.7610   45.1170 C   0  0  0  0  0  0  0  0  0  0  0  0
   10.0160    7.1690   45.5820 C   0  0  0  0  0  0  0  0  0  0  0  0
   12.6080    8.8880   43.2900 C   0  0  0  0  0  0  0  0  0  0  0  0
   13.0560    9.8270   42.4340 N   0  0  0  0  0  0  0  0  0  0  0  0
   14.6670   12.6140   39.6670 C   0  0  0  0  0  0  0  0  0  0  0  0
   15.6940   13.3870   40.0290 N   0  0  0  0  0  0  0  0  0  0  0  0
   16.3620   12.6310   40.9180 N   0  0  0  0  0  0  0  0  0  0  0  0
   17.5580   13.1610   41.5320 C   0  0  0  0  0  0  0  0  0  0  0  0
   16.1664   10.7427   43.1228 H   0  0  0  0  0  0  0  0  0  0  0  0
   15.8819    9.4331   41.9267 H   0  0  0  0  0  0  0  0  0  0  0  0
   17.4403   10.3265   41.9267 H   0  0  0  0  0  0  0  0  0  0  0  0
   13.3860   10.0860   39.3470 H   0  0  0  0  0  0  0  0  0  0  0  0
   12.6598    6.2172   41.3234 H   0  0  0  0  0  0  0  0  0  0  0  0
   12.1006    5.5370   43.5026 H   0  0  0  0  0  0  0  0  0  0  0  0
   12.5106    6.6482   44.8648 H   0  0  0  0  0  0  0  0  0  0  0  0
   10.3426    7.1114   43.1941 H   0  0  0  0  0  0  0  0  0  0  0  0
    8.7442    5.4368   44.8703 H   0  0  0  0  0  0  0  0  0  0  0  0
    9.9879    4.7600   45.5154 H   0  0  0  0  0  0  0  0  0  0  0  0
    9.1771    7.8743   45.6752 H   0  0  0  0  0  0  0  0  0  0  0  0
   10.4963    7.6236   46.4610 H   0  0  0  0  0  0  0  0  0  0  0  0
   12.3704    9.1965   44.3188 H   0  0  0  0  0  0  0  0  0  0  0  0
   13.9005   12.9155   38.9379 H   0  0  0  0  0  0  0  0  0  0  0  0
   17.4586   13.1170   42.6266 H   0  0  0  0  0  0  0  0  0  0  0  0
   18.4268   12.5636   41.2184 H   0  0  0  0  0  0  0  0  0  0  0  0
   17.6990   14.2059   41.2184 H   0  0  0  0  0  0  0  0  0  0  0  0
  1  2  1  0
  2  3  2  0
  3  4  1  0
  4  5  1  0
  5  6  2  0
  6  7  1  0
  7  8  2  0
  8  9  1  0
  9 10  1  0
 10 11  1  0
 11 12  1  0
  8 13  1  0
 13 14  2  0
  3 15  1  0
 15 16  2  0
 16 17  1  0
 17 18  1  0
 17  2  1  0
 14  5  1  0
 12 10  1  0
  1 19  1  0
  1 20  1  0
  1 21  1  0
  4 22  1  0
  7 23  1  0
  9 24  1  0
  9 25  1  0
 10 26  1  0
 11 27  1  0
 11 28  1  0
 12 29  1  0
 12 30  1  0
 13 31  1  0
 15 32  1  0
 18 33  1  0
 18 34  1  0
 18 35  1  0
M  END
>  <meeko>  (17) 
{"is_sidechain": false}

>  <vina_energy>  (17) 
-6.57

$$$$

     RDKit          3D

 37 39  0  0  0  0  0  0  0  0999 V2000
   15.0910   13.4660   39.3790 C   0  0  0  0  0  0  0  0  0  0  0  0
   15.8330   12.6030   40.3300 C   0  0  0  0  0  0  0  0  0  0  0  0
   15.5070   11.4110   40.9460 C   0  0  0  0  0  0  0  0  0  0  0  0
   14.3450   10.7470   40.7850 N   0  0  0  0  0  0  0  0  0  0  0  0
   13.8510    9.5990   41.4050 C   0  0  0  0  0  0  0  0  0  0  0  0
   14.2110    9.4420   42.6900 N   0  0  0  0  0  0  0  0  0  0  0  0
   13.7510    8.3490   43.3310 C   0  0  0  0  0  0  0  0  0  0  0  0
   12.9440    7.3970   42.7480 C   0  0  0  0  0  0  0  0  0  0  0  0
   12.4590    6.1780   43.4700 C   0  0  0  0  0  0  0  0  0  0  0  0
   11.2220    6.4010   44.3070 C   0  0  0  0  0  0  0  0  0  0  0  0
   10.3860    5.3340   44.6460 C   0  0  0  0  0  0  0  0  0  0  0  0
    9.2590    5.5880   45.4130 C   0  0  0  0  0  0  0  0  0  0  0  0
    8.9150    6.8140   45.8590 N   0  0  0  0  0  0  0  0  0  0  0  0
    9.7330    7.8330   45.5210 C   0  0  0  0  0  0  0  0  0  0  0  0
   10.8790    7.6820   44.7560 C   0  0  0  0  0  0  0  0  0  0  0  0
   12.6410    7.6460   41.4290 C   0  0  0  0  0  0  0  0  0  0  0  0
   13.0740    8.7240   40.7480 N   0  0  0  0  0  0  0  0  0  0  0  0
   16.6280   11.0890   41.7380 C   0  0  0  0  0  0  0  0  0  0  0  0
   17.5990   12.0000   41.6380 N   0  0  0  0  0  0  0  0  0  0  0  0
   17.0980   12.9030   40.7750 N   0  0  0  0  0  0  0  0  0  0  0  0
   17.8970   14.0540   40.4220 C   0  0  0  0  0  0  0  0  0  0  0  0
   14.4740   14.1836   39.9397 H   0  0  0  0  0  0  0  0  0  0  0  0
   15.8054   14.0128   38.7460 H   0  0  0  0  0  0  0  0  0  0  0  0
   14.4433   12.8417   38.7460 H   0  0  0  0  0  0  0  0  0  0  0  0
   13.6500   11.0520   40.1180 H   0  0  0  0  0  0  0  0  0  0  0  0
   14.0375    8.2088   44.3837 H   0  0  0  0  0  0  0  0  0  0  0  0
   12.2341    5.4023   42.7232 H   0  0  0  0  0  0  0  0  0  0  0  0
   13.2599    5.8844   44.1645 H   0  0  0  0  0  0  0  0  0  0  0  0
   10.6174    4.3122   44.3109 H   0  0  0  0  0  0  0  0  0  0  0  0
    8.6076    4.7406   45.6729 H   0  0  0  0  0  0  0  0  0  0  0  0
    9.4751    8.8426   45.8733 H   0  0  0  0  0  0  0  0  0  0  0  0
   11.5061    8.5507   44.5068 H   0  0  0  0  0  0  0  0  0  0  0  0
   12.0066    6.9205   40.8988 H   0  0  0  0  0  0  0  0  0  0  0  0
   16.6951   10.1891   42.3671 H   0  0  0  0  0  0  0  0  0  0  0  0
   18.2442   14.5542   41.3381 H   0  0  0  0  0  0  0  0  0  0  0  0
   18.7653   13.7298   39.8296 H   0  0  0  0  0  0  0  0  0  0  0  0
   17.2897   14.7542   39.8296 H   0  0  0  0  0  0  0  0  0  0  0  0
  1  2  1  0
  2  3  2  0
  3  4  1  0
  4  5  1  0
  5  6  2  0
  6  7  1  0
  7  8  2  0
  8  9  1  0
  9 10  1  0
 10 11  2  0
 11 12  1  0
 12 13  2  0
 13 14  1  0
 14 15  2  0
  8 16  1  0
 16 17  2  0
  3 18  1  0
 18 19  2  0
 19 20  1  0
 20 21  1  0
 20  2  1  0
 17  5  1  0
 15 10  1  0
  1 22  1  0
  1 23  1  0
  1 24  1  0
  4 25  1  0
  7 26  1  0
  9 27  1  0
  9 28  1  0
 11 29  1  0
 12 30  1  0
 14 31  1  0
 15 32  1  0
 16 33  1  0
 18 34  1  0
 21 35  1  0
 21 36  1  0
 21 37  1  0
M  END
>  <meeko>  (18) 
{"is_sidechain": false}

>  <vina_energy>  (18) 
-7.09

$$$$

     RDKit          3D

 44 46  0  0  0  0  0  0  0  0999 V2000
   15.1790   13.5550   39.2840 C   0  0  0  0  0  0  0  0  0  0  0  0
   15.9200   12.7030   40.2470 C   0  0  0  0  0  0  0  0  0  0  0  0
   15.6250   11.4840   40.8260 C   0  0  0  0  0  0  0  0  0  0  0  0
   14.4990   10.7750   40.6140 N   0  0  0  0  0  0  0  0  0  0  0  0
   13.9710    9.6760   41.2900 C   0  0  0  0  0  0  0  0  0  0  0  0
   14.3470    9.5480   42.5730 N   0  0  0  0  0  0  0  0  0  0  0  0
   13.8660    8.4930   43.2590 C   0  0  0  0  0  0  0  0  0  0  0  0
   13.0390    7.5350   42.7150 C   0  0  0  0  0  0  0  0  0  0  0  0
   12.5770    6.3310   43.4750 C   0  0  0  0  0  0  0  0  0  0  0  0
   11.1290    6.3980   44.0190 C   0  0  0  0  0  0  0  0  0  0  0  0
   10.8940    7.5920   44.9620 C   0  0  0  0  0  0  0  0  0  0  0  0
    9.4510    7.6510   45.4500 C   0  0  0  0  0  0  0  0  0  0  0  0
    9.0940    6.3490   46.0850 N   0  0  0  0  0  0  0  0  0  0  0  0
    9.2330    5.1730   45.1750 C   0  0  0  0  0  0  0  0  0  0  0  0
   10.6740    5.0880   44.6900 C   0  0  0  0  0  0  0  0  0  0  0  0
   12.6890    7.7710   41.4050 C   0  0  0  0  0  0  0  0  0  0  0  0
   13.1560    8.8030   40.6800 N   0  0  0  0  0  0  0  0  0  0  0  0
   16.7320   11.1930   41.6490 C   0  0  0  0  0  0  0  0  0  0  0  0
   17.6580   12.1540   41.6150 N   0  0  0  0  0  0  0  0  0  0  0  0
   17.1530   13.0510   40.7480 N   0  0  0  0  0  0  0  0  0  0  0  0
   17.9160   14.2400   40.4410 C   0  0  0  0  0  0  0  0  0  0  0  0
   14.5543   14.2733   39.8352 H   0  0  0  0  0  0  0  0  0  0  0  0
   15.8944   14.1010   38.6515 H   0  0  0  0  0  0  0  0  0  0  0  0
   14.5390   12.9222   38.6515 H   0  0  0  0  0  0  0  0  0  0  0  0
   13.8820   10.9900   39.8420 H   0  0  0  0  0  0  0  0  0  0  0  0
   14.1506    8.3905   44.3166 H   0  0  0  0  0  0  0  0  0  0  0  0
   12.6471    5.4609   42.8056 H   0  0  0  0  0  0  0  0  0  0  0  0
   13.2278    6.2655   44.3594 H   0  0  0  0  0  0  0  0  0  0  0  0
   10.5046    6.5493   43.1261 H   0  0  0  0  0  0  0  0  0  0  0  0
   11.5606    7.4957   45.8317 H   0  0  0  0  0  0  0  0  0  0  0  0
   11.1047    8.5160   44.4036 H   0  0  0  0  0  0  0  0  0  0  0  0
    9.3446    8.4610   46.1866 H   0  0  0  0  0  0  0  0  0  0  0  0
    8.7808    7.8432   44.5992 H   0  0  0  0  0  0  0  0  0  0  0  0
    9.6740    6.2040   46.9250 H   0  0  0  0  0  0  0  0  0  0  0  0
    8.1240    6.3950   46.4290 H   0  0  0  0  0  0  0  0  0  0  0  0
    8.9722    4.2531   45.7189 H   0  0  0  0  0  0  0  0  0  0  0  0
    8.5577    5.2877   44.3143 H   0  0  0  0  0  0  0  0  0  0  0  0
   11.3279    4.8826   45.5504 H   0  0  0  0  0  0  0  0  0  0  0  0
   10.7373    4.2816   43.9445 H   0  0  0  0  0  0  0  0  0  0  0  0
   11.9865    7.0751   40.9230 H   0  0  0  0  0  0  0  0  0  0  0  0
   16.8226   10.2771   42.2514 H   0  0  0  0  0  0  0  0  0  0  0  0
   18.2284   14.7269   41.3766 H   0  0  0  0  0  0  0  0  0  0  0  0
   18.8059   13.9638   39.8564 H   0  0  0  0  0  0  0  0  0  0  0  0
   17.2942   14.9340   39.8564 H   0  0  0  0  0  0  0  0  0  0  0  0
  1  2  1  0
  2  3  2  0
  3  4  1  0
  4  5  1  0
  5  6  2  0
  6  7  1  0
  7  8  2  0
  8  9  1  0
  9 10  1  0
 10 11  1  0
 11 12  1  0
 12 13  1  0
 13 14  1  0
 14 15  1  0
  8 16  1  0
 16 17  2  0
  3 18  1  0
 18 19  2  0
 19 20  1  0
 20 21  1  0
 20  2  1  0
 17  5  1  0
 15 10  1  0
  1 22  1  0
  1 23  1  0
  1 24  1  0
  4 25  1  0
  7 26  1  0
  9 27  1  0
  9 28  1  0
 10 29  1  0
 11 30  1  0
 11 31  1  0
 12 32  1  0
 12 33  1  0
 13 34  1  0
 13 35  1  0
 14 36  1  0
 14 37  1  0
 15 38  1  0
 15 39  1  0
 16 40  1  0
 18 41  1  0
 21 42  1  0
 21 43  1  0
 21 44  1  0
M  CHG  1  13   1
M  END
>  <meeko>  (19) 
{"is_sidechain": false}

>  <vina_energy>  (19) 
-7.13

$$$$

     RDKit          3D

 41 43  0  0  0  0  0  0  0  0999 V2000
   21.8310   13.1410   42.8390 C   0  0  0  0  0  0  0  0  0  0  0  0
   20.6530   14.0380   42.9430 C   0  0  0  0  0  0  0  0  0  0  0  0
   19.3990   13.9930   42.3680 C   0  0  0  0  0  0  0  0  0  0  0  0
   18.9650   13.0370   41.5200 N   0  0  0  0  0  0  0  0  0  0  0  0
   17.6980   12.4890   41.3360 C   0  0  0  0  0  0  0  0  0  0  0  0
   17.4610   11.3290   41.9710 N   0  0  0  0  0  0  0  0  0  0  0  0
   16.2500   10.7650   41.8180 C   0  0  0  0  0  0  0  0  0  0  0  0
   15.2490   11.3020   41.0400 C   0  0  0  0  0  0  0  0  0  0  0  0
   13.9360   10.6340   40.8320 C   0  0  0  0  0  0  0  0  0  0  0  0
   14.0600    9.1440   40.8400 N   0  0  0  0  0  0  0  0  0  0  0  0
   12.9530    8.4140   41.5200 C   0  0  0  0  0  0  0  0  0  0  0  0
   13.2440    8.0520   42.9390 C   0  0  0  0  0  0  0  0  0  0  0  0
   12.5230    6.9200   43.6280 C   0  0  0  0  0  0  0  0  0  0  0  0
   12.2270    8.3440   44.0120 C   0  0  0  0  0  0  0  0  0  0  0  0
   15.5780   12.4940   40.4360 C   0  0  0  0  0  0  0  0  0  0  0  0
   16.7780   13.0840   40.5610 N   0  0  0  0  0  0  0  0  0  0  0  0
   18.7300   15.1320   42.8590 C   0  0  0  0  0  0  0  0  0  0  0  0
   19.4930   15.8550   43.6810 N   0  0  0  0  0  0  0  0  0  0  0  0
   20.6510   15.1700   43.7250 N   0  0  0  0  0  0  0  0  0  0  0  0
   21.7320   15.6650   44.5460 C   0  0  0  0  0  0  0  0  0  0  0  0
   22.1798   12.8754   43.8479 H   0  0  0  0  0  0  0  0  0  0  0  0
   21.5490   12.2269   42.2960 H   0  0  0  0  0  0  0  0  0  0  0  0
   22.6372   13.6560   42.2960 H   0  0  0  0  0  0  0  0  0  0  0  0
   19.6050   12.5790   40.8850 H   0  0  0  0  0  0  0  0  0  0  0  0
   16.0475    9.8206   42.3445 H   0  0  0  0  0  0  0  0  0  0  0  0
   13.2510   10.9380   41.6372 H   0  0  0  0  0  0  0  0  0  0  0  0
   13.5513   10.9384   39.8474 H   0  0  0  0  0  0  0  0  0  0  0  0
   14.9440    8.8840   41.2970 H   0  0  0  0  0  0  0  0  0  0  0  0
   14.1410    8.8000   39.8750 H   0  0  0  0  0  0  0  0  0  0  0  0
   12.0567    9.0515   41.5028 H   0  0  0  0  0  0  0  0  0  0  0  0
   12.8126    7.4696   40.9737 H   0  0  0  0  0  0  0  0  0  0  0  0
   14.3022    8.2986   42.7675 H   0  0  0  0  0  0  0  0  0  0  0  0
   11.7730    6.3310   43.0797 H   0  0  0  0  0  0  0  0  0  0  0  0
   12.8347    6.0164   44.1724 H   0  0  0  0  0  0  0  0  0  0  0  0
   11.2603    8.7957   43.7447 H   0  0  0  0  0  0  0  0  0  0  0  0
   12.2326    8.9120   44.9540 H   0  0  0  0  0  0  0  0  0  0  0  0
   14.8164   12.9907   39.8169 H   0  0  0  0  0  0  0  0  0  0  0  0
   17.6953   15.3954   42.5944 H   0  0  0  0  0  0  0  0  0  0  0  0
   21.4705   15.5453   45.6077 H   0  0  0  0  0  0  0  0  0  0  0  0
   22.6482   15.0967   44.3277 H   0  0  0  0  0  0  0  0  0  0  0  0
   21.9003   16.7299   44.3277 H   0  0  0  0  0  0  0  0  0  0  0  0
  1  2  1  0
  2  3  2  0
  3  4  1  0
  4  5  1  0
  5  6  2  0
  6  7  1  0
  7  8  2  0
  8  9  1  0
  9 10  1  0
 10 11  1  0
 11 12  1  0
 12 13  1  0
 13 14  1  0
  8 15  1  0
 15 16  2  0
  3 17  1  0
 17 18  2  0
 18 19  1  0
 19 20  1  0
 19  2  1  0
 16  5  1  0
 14 12  1  0
  1 21  1  0
  1 22  1  0
  1 23  1  0
  4 24  1  0
  7 25  1  0
  9 26  1  0
  9 27  1  0
 10 28  1  0
 10 29  1  0
 11 30  1  0
 11 31  1  0
 12 32  1  0
 13 33  1  0
 13 34  1  0
 14 35  1  0
 14 36  1  0
 15 37  1  0
 17 38  1  0
 20 39  1  0
 20 40  1  0
 20 41  1  0
M  CHG  1  10   1
M  END
>  <meeko>  (20) 
{"is_sidechain": false}

>  <vina_energy>  (20) 
-6.31

$$$$

     RDKit          3D

 35 37  0  0  0  0  0  0  0  0999 V2000
   15.0480   13.4050   39.4460 C   0  0  0  0  0  0  0  0  0  0  0  0
   15.7820   12.5370   40.3990 C   0  0  0  0  0  0  0  0  0  0  0  0
   15.4420   11.3540   41.0220 C   0  0  0  0  0  0  0  0  0  0  0  0
   14.2730   10.7040   40.8670 N   0  0  0  0  0  0  0  0  0  0  0  0
   13.7880    9.5330   41.4520 C   0  0  0  0  0  0  0  0  0  0  0  0
   13.0280    8.6660   40.7660 N   0  0  0  0  0  0  0  0  0  0  0  0
   12.6050    7.5630   41.4160 C   0  0  0  0  0  0  0  0  0  0  0  0
   12.9150    7.2750   42.7260 C   0  0  0  0  0  0  0  0  0  0  0  0
   12.4400    6.0380   43.4170 C   0  0  0  0  0  0  0  0  0  0  0  0
   11.3000    6.4580   44.2960 C   0  0  0  0  0  0  0  0  0  0  0  0
   10.3270    5.5600   44.8570 C   0  0  0  0  0  0  0  0  0  0  0  0
    9.3800    6.2080   45.6180 C   0  0  0  0  0  0  0  0  0  0  0  0
    9.6370    7.8950   45.6590 S   0  0  0  0  0  0  0  0  0  0  0  0
   11.0150    7.7640   44.6570 C   0  0  0  0  0  0  0  0  0  0  0  0
   13.6980    8.2270   43.3420 C   0  0  0  0  0  0  0  0  0  0  0  0
   14.1440    9.3450   42.7350 N   0  0  0  0  0  0  0  0  0  0  0  0
   16.5610   11.0210   41.8130 C   0  0  0  0  0  0  0  0  0  0  0  0
   17.5440   11.9200   41.7070 N   0  0  0  0  0  0  0  0  0  0  0  0
   17.0520   12.8240   40.8400 N   0  0  0  0  0  0  0  0  0  0  0  0
   17.8640   13.9640   40.4780 C   0  0  0  0  0  0  0  0  0  0  0  0
   14.4363   14.1283   40.0052 H   0  0  0  0  0  0  0  0  0  0  0  0
   15.7675   13.9451   38.8131 H   0  0  0  0  0  0  0  0  0  0  0  0
   14.3959   12.7852   38.8131 H   0  0  0  0  0  0  0  0  0  0  0  0
   13.5600   11.0370   40.2340 H   0  0  0  0  0  0  0  0  0  0  0  0
   11.9736    6.8497   40.8659 H   0  0  0  0  0  0  0  0  0  0  0  0
   12.0990    5.2968   42.6793 H   0  0  0  0  0  0  0  0  0  0  0  0
   13.2463    5.5729   44.0031 H   0  0  0  0  0  0  0  0  0  0  0  0
   10.3381    4.4720   44.6955 H   0  0  0  0  0  0  0  0  0  0  0  0
    8.5553    5.6987   46.1381 H   0  0  0  0  0  0  0  0  0  0  0  0
   11.6137    8.6278   44.3324 H   0  0  0  0  0  0  0  0  0  0  0  0
   13.9762    8.0647   44.3938 H   0  0  0  0  0  0  0  0  0  0  0  0
   16.6182   10.1229   42.4456 H   0  0  0  0  0  0  0  0  0  0  0  0
   18.2206   14.4647   41.3902 H   0  0  0  0  0  0  0  0  0  0  0  0
   18.7262   13.6263   39.8842 H   0  0  0  0  0  0  0  0  0  0  0  0
   17.2631   14.6684   39.8842 H   0  0  0  0  0  0  0  0  0  0  0  0
  1  2  1  0
  2  3  2  0
  3  4  1  0
  4  5  1  0
  5  6  2  0
  6  7  1  0
  7  8  2  0
  8  9  1  0
  9 10  1  0
 10 11  1  0
 11 12  2  0
 12 13  1  0
 13 14  1  0
  8 15  1  0
 15 16  2  0
  3 17  1  0
 17 18  2  0
 18 19  1  0
 19 20  1  0
 19  2  1  0
 16  5  1  0
 14 10  2  0
  1 21  1  0
  1 22  1  0
  1 23  1  0
  4 24  1  0
  7 25  1  0
  9 26  1  0
  9 27  1  0
 11 28  1  0
 12 29  1  0
 14 30  1  0
 15 31  1  0
 17 32  1  0
 20 33  1  0
 20 34  1  0
 20 35  1  0
M  END
>  <meeko>  (21) 
{"is_sidechain": false}

>  <vina_energy>  (21) 
-6.25

$$$$

     RDKit          3D

 38 40  0  0  0  0  0  0  0  0999 V2000
   17.8820   14.8570   39.1360 C   0  0  0  0  0  0  0  0  0  0  0  0
   18.8560   14.3870   40.1530 C   0  0  0  0  0  0  0  0  0  0  0  0
   18.6950   13.7990   41.3910 C   0  0  0  0  0  0  0  0  0  0  0  0
   17.5080   13.5140   41.9670 N   0  0  0  0  0  0  0  0  0  0  0  0
   16.6090   12.4770   41.7350 C   0  0  0  0  0  0  0  0  0  0  0  0
   15.5730   12.7670   40.9290 N   0  0  0  0  0  0  0  0  0  0  0  0
   14.6780   11.7940   40.6810 C   0  0  0  0  0  0  0  0  0  0  0  0
   14.7580   10.5270   41.2170 C   0  0  0  0  0  0  0  0  0  0  0  0
   13.7270    9.4830   40.9750 C   0  0  0  0  0  0  0  0  0  0  0  0
   13.7950    8.3240   41.9230 N   0  0  0  0  0  0  0  0  0  0  0  0
   12.5220    7.9640   42.5810 C   0  0  0  0  0  0  0  0  0  0  0  0
   12.5400    6.7930   43.5190 C   0  0  0  0  0  0  0  0  0  0  0  0
   12.4490    8.1910   44.0620 C   0  0  0  0  0  0  0  0  0  0  0  0
   15.8570   10.3190   42.0170 C   0  0  0  0  0  0  0  0  0  0  0  0
   16.7670   11.2660   42.2910 N   0  0  0  0  0  0  0  0  0  0  0  0
   20.0030   13.5880   41.8690 C   0  0  0  0  0  0  0  0  0  0  0  0
   20.9330   14.0100   41.0100 N   0  0  0  0  0  0  0  0  0  0  0  0
   20.2170   14.4800   39.9710 N   0  0  0  0  0  0  0  0  0  0  0  0
   20.9110   15.0200   38.8240 C   0  0  0  0  0  0  0  0  0  0  0  0
   17.0016   15.2818   39.6403 H   0  0  0  0  0  0  0  0  0  0  0  0
   18.3517   15.6276   38.5071 H   0  0  0  0  0  0  0  0  0  0  0  0
   17.5710   14.0098   38.5071 H   0  0  0  0  0  0  0  0  0  0  0  0
   17.1270   14.1090   42.6900 H   0  0  0  0  0  0  0  0  0  0  0  0
   13.8347   12.0225   40.0127 H   0  0  0  0  0  0  0  0  0  0  0  0
   12.7350    9.9488   41.0695 H   0  0  0  0  0  0  0  0  0  0  0  0
   13.9134    9.0806   39.9684 H   0  0  0  0  0  0  0  0  0  0  0  0
   14.4900    8.5190   42.6580 H   0  0  0  0  0  0  0  0  0  0  0  0
   14.1570    7.5070   41.4130 H   0  0  0  0  0  0  0  0  0  0  0  0
   11.9090    8.2504   41.7137 H   0  0  0  0  0  0  0  0  0  0  0  0
   11.6703    6.1221   43.5782 H   0  0  0  0  0  0  0  0  0  0  0  0
   13.2112    5.9369   43.6822 H   0  0  0  0  0  0  0  0  0  0  0  0
   11.5127    8.5438   44.5190 H   0  0  0  0  0  0  0  0  0  0  0  0
   13.0260    8.7829   44.7878 H   0  0  0  0  0  0  0  0  0  0  0  0
   15.9978    9.3206   42.4567 H   0  0  0  0  0  0  0  0  0  0  0  0
   20.2322   13.1271   42.8412 H   0  0  0  0  0  0  0  0  0  0  0  0
   21.7366   15.6624   39.1640 H   0  0  0  0  0  0  0  0  0  0  0  0
   21.3138   14.1954   38.2175 H   0  0  0  0  0  0  0  0  0  0  0  0
   20.2107   15.6131   38.2175 H   0  0  0  0  0  0  0  0  0  0  0  0
  1  2  1  0
  2  3  2  0
  3  4  1  0
  4  5  1  0
  5  6  2  0
  6  7  1  0
  7  8  2  0
  8  9  1  0
  9 10  1  0
 10 11  1  0
 11 12  1  0
 12 13  1  0
  8 14  1  0
 14 15  2  0
  3 16  1  0
 16 17  2  0
 17 18  1  0
 18 19  1  0
 18  2  1  0
 15  5  1  0
 13 11  1  0
  1 20  1  0
  1 21  1  0
  1 22  1  0
  4 23  1  0
  7 24  1  0
  9 25  1  0
  9 26  1  0
 10 27  1  0
 10 28  1  0
 11 29  1  0
 12 30  1  0
 12 31  1  0
 13 32  1  0
 13 33  1  0
 14 34  1  0
 16 35  1  0
 19 36  1  0
 19 37  1  0
 19 38  1  0
M  CHG  1  10   1
M  END
>  <meeko>  (22) 
{"is_sidechain": false}

>  <vina_energy>  (22) 
-6.05

$$$$

     RDKit          3D

 38 40  0  0  0  0  0  0  0  0999 V2000
   15.3290   13.7040   39.2020 C   0  0  0  0  0  0  0  0  0  0  0  0
   16.0270   12.8590   40.2010 C   0  0  0  0  0  0  0  0  0  0  0  0
   15.6610   11.6900   40.8380 C   0  0  0  0  0  0  0  0  0  0  0  0
   14.4990   11.0360   40.6510 N   0  0  0  0  0  0  0  0  0  0  0  0
   13.9990    9.8680   41.2270 C   0  0  0  0  0  0  0  0  0  0  0  0
   13.1490    9.0660   40.5670 N   0  0  0  0  0  0  0  0  0  0  0  0
   12.7170    7.9610   41.2060 C   0  0  0  0  0  0  0  0  0  0  0  0
   13.0930    7.6160   42.4840 C   0  0  0  0  0  0  0  0  0  0  0  0
   12.6110    6.3650   43.1540 C   0  0  0  0  0  0  0  0  0  0  0  0
   11.4470    6.5690   44.0950 C   0  0  0  0  0  0  0  0  0  0  0  0
   10.6720    5.4790   44.5170 C   0  0  0  0  0  0  0  0  0  0  0  0
    9.5950    5.6690   45.3830 C   0  0  0  0  0  0  0  0  0  0  0  0
    9.2800    6.9480   45.8360 C   0  0  0  0  0  0  0  0  0  0  0  0
   10.0430    8.0390   45.4250 C   0  0  0  0  0  0  0  0  0  0  0  0
   11.1210    7.8520   44.5590 C   0  0  0  0  0  0  0  0  0  0  0  0
   13.9710    8.4980   43.0730 C   0  0  0  0  0  0  0  0  0  0  0  0
   14.4340    9.6140   42.4730 N   0  0  0  0  0  0  0  0  0  0  0  0
   16.7470   11.3780   41.6810 C   0  0  0  0  0  0  0  0  0  0  0  0
   17.7350   12.2730   41.5910 N   0  0  0  0  0  0  0  0  0  0  0  0
   17.2800   13.1550   40.6820 N   0  0  0  0  0  0  0  0  0  0  0  0
   18.1110   14.2830   40.3280 C   0  0  0  0  0  0  0  0  0  0  0  0
   14.7115   14.4516   39.7215 H   0  0  0  0  0  0  0  0  0  0  0  0
   16.0713   14.2156   38.5718 H   0  0  0  0  0  0  0  0  0  0  0  0
   14.6864   13.0716   38.5718 H   0  0  0  0  0  0  0  0  0  0  0  0
   13.8050   11.3660   39.9940 H   0  0  0  0  0  0  0  0  0  0  0  0
   12.0220    7.2947   40.6740 H   0  0  0  0  0  0  0  0  0  0  0  0
   12.3018    5.6541   42.3736 H   0  0  0  0  0  0  0  0  0  0  0  0
   13.4472    5.9945   43.7652 H   0  0  0  0  0  0  0  0  0  0  0  0
   10.9152    4.4665   44.1624 H   0  0  0  0  0  0  0  0  0  0  0  0
    8.9936    4.8075   45.7086 H   0  0  0  0  0  0  0  0  0  0  0  0
    8.4296    7.0966   46.5177 H   0  0  0  0  0  0  0  0  0  0  0  0
    9.7953    9.0489   45.7837 H   0  0  0  0  0  0  0  0  0  0  0  0
   11.7196    8.7171   44.2378 H   0  0  0  0  0  0  0  0  0  0  0  0
   14.3157    8.2795   44.0945 H   0  0  0  0  0  0  0  0  0  0  0  0
   16.7776   10.4969   42.3388 H   0  0  0  0  0  0  0  0  0  0  0  0
   18.4725   14.7738   41.2437 H   0  0  0  0  0  0  0  0  0  0  0  0
   18.9696   13.9342   39.7354 H   0  0  0  0  0  0  0  0  0  0  0  0
   17.5234   14.9997   39.7354 H   0  0  0  0  0  0  0  0  0  0  0  0
  1  2  1  0
  2  3  2  0
  3  4  1  0
  4  5  1  0
  5  6  2  0
  6  7  1  0
  7  8  2  0
  8  9  1  0
  9 10  1  0
 10 11  2  0
 11 12  1  0
 12 13  2  0
 13 14  1  0
 14 15  2  0
  8 16  1  0
 16 17  2  0
  3 18  1  0
 18 19  2  0
 19 20  1  0
 20 21  1  0
 20  2  1  0
 17  5  1  0
 15 10  1  0
  1 22  1  0
  1 23  1  0
  1 24  1  0
  4 25  1  0
  7 26  1  0
  9 27  1  0
  9 28  1  0
 11 29  1  0
 12 30  1  0
 13 31  1  0
 14 32  1  0
 15 33  1  0
 16 34  1  0
 18 35  1  0
 21 36  1  0
 21 37  1  0
 21 38  1  0
M  END
>  <meeko>  (23) 
{"is_sidechain": false}

>  <vina_energy>  (23) 
-6.91

$$$$

     RDKit          3D

 44 46  0  0  0  0  0  0  0  0999 V2000
   18.8690   14.5440   39.2190 C   0  0  0  0  0  0  0  0  0  0  0  0
   18.6480   14.7620   40.6700 C   0  0  0  0  0  0  0  0  0  0  0  0
   18.3590   13.8920   41.7010 C   0  0  0  0  0  0  0  0  0  0  0  0
   18.2070   12.5600   41.5730 N   0  0  0  0  0  0  0  0  0  0  0  0
   17.0620   11.7630   41.5550 C   0  0  0  0  0  0  0  0  0  0  0  0
   16.0810   12.1900   40.7420 N   0  0  0  0  0  0  0  0  0  0  0  0
   14.9540   11.4520   40.6940 C   0  0  0  0  0  0  0  0  0  0  0  0
   14.7570   10.3010   41.4240 C   0  0  0  0  0  0  0  0  0  0  0  0
   13.4930    9.5010   41.3560 C   0  0  0  0  0  0  0  0  0  0  0  0
   13.2470    8.6130   42.5930 C   0  0  0  0  0  0  0  0  0  0  0  0
   12.7230    7.2180   42.2030 C   0  0  0  0  0  0  0  0  0  0  0  0
   12.4050    6.3670   43.4310 C   0  0  0  0  0  0  0  0  0  0  0  0
   11.4350    7.0710   44.3710 C   0  0  0  0  0  0  0  0  0  0  0  0
   11.9450    8.4510   44.7680 C   0  0  0  0  0  0  0  0  0  0  0  0
   12.2570    9.3070   43.5440 C   0  0  0  0  0  0  0  0  0  0  0  0
   15.8210    9.9490   42.2250 C   0  0  0  0  0  0  0  0  0  0  0  0
   16.9650   10.6540   42.3050 N   0  0  0  0  0  0  0  0  0  0  0  0
   18.2710   14.7030   42.8500 C   0  0  0  0  0  0  0  0  0  0  0  0
   18.4840   15.9950   42.5800 N   0  0  0  0  0  0  0  0  0  0  0  0
   18.7050   16.0060   41.2520 N   0  0  0  0  0  0  0  0  0  0  0  0
   18.9760   17.2640   40.5970 C   0  0  0  0  0  0  0  0  0  0  0  0
   19.6456   13.7779   39.0774 H   0  0  0  0  0  0  0  0  0  0  0  0
   17.9319   14.2068   38.7520 H   0  0  0  0  0  0  0  0  0  0  0  0
   19.1933   15.4856   38.7520 H   0  0  0  0  0  0  0  0  0  0  0  0
   19.0000   11.9440   41.4630 H   0  0  0  0  0  0  0  0  0  0  0  0
   14.1429   11.7894   40.0319 H   0  0  0  0  0  0  0  0  0  0  0  0
   12.6475   10.1975   41.2562 H   0  0  0  0  0  0  0  0  0  0  0  0
   13.5889    8.8259   40.4928 H   0  0  0  0  0  0  0  0  0  0  0  0
   14.2108    8.4712   43.1038 H   0  0  0  0  0  0  0  0  0  0  0  0
   11.8073    7.3361   41.6050 H   0  0  0  0  0  0  0  0  0  0  0  0
   13.5085    6.7067   41.6272 H   0  0  0  0  0  0  0  0  0  0  0  0
   11.9558    5.4188   43.1006 H   0  0  0  0  0  0  0  0  0  0  0  0
   13.3434    6.1906   43.9772 H   0  0  0  0  0  0  0  0  0  0  0  0
   10.4638    7.1804   43.8662 H   0  0  0  0  0  0  0  0  0  0  0  0
   11.3359    6.4639   45.2830 H   0  0  0  0  0  0  0  0  0  0  0  0
   11.1758    8.9563   45.3705 H   0  0  0  0  0  0  0  0  0  0  0  0
   12.8732    8.3226   45.3442 H   0  0  0  0  0  0  0  0  0  0  0  0
   11.3212    9.5041   43.0005 H   0  0  0  0  0  0  0  0  0  0  0  0
   12.7192   10.2424   43.8923 H   0  0  0  0  0  0  0  0  0  0  0  0
   15.7305    9.0382   42.8352 H   0  0  0  0  0  0  0  0  0  0  0  0
   18.0517   14.3164   43.8562 H   0  0  0  0  0  0  0  0  0  0  0  0
   19.1439   18.0433   41.3549 H   0  0  0  0  0  0  0  0  0  0  0  0
   19.8733   17.1644   39.9685 H   0  0  0  0  0  0  0  0  0  0  0  0
   18.1173   17.5426   39.9685 H   0  0  0  0  0  0  0  0  0  0  0  0
  1  2  1  0
  2  3  2  0
  3  4  1  0
  4  5  1  0
  5  6  2  0
  6  7  1  0
  7  8  2  0
  8  9  1  0
  9 10  1  0
 10 11  1  0
 11 12  1  0
 12 13  1  0
 13 14  1  0
 14 15  1  0
  8 16  1  0
 16 17  2  0
  3 18  1  0
 18 19  2  0
 19 20  1  0
 20 21  1  0
 20  2  1  0
 17  5  1  0
 15 10  1  0
  1 22  1  0
  1 23  1  0
  1 24  1  0
  4 25  1  0
  7 26  1  0
  9 27  1  0
  9 28  1  0
 10 29  1  0
 11 30  1  0
 11 31  1  0
 12 32  1  0
 12 33  1  0
 13 34  1  0
 13 35  1  0
 14 36  1  0
 14 37  1  0
 15 38  1  0
 15 39  1  0
 16 40  1  0
 18 41  1  0
 21 42  1  0
 21 43  1  0
 21 44  1  0
M  END
>  <meeko>  (24) 
{"is_sidechain": false}

>  <vina_energy>  (24) 
-6.58

$$$$

     RDKit          3D

 37 39  0  0  0  0  0  0  0  0999 V2000
   17.6640   14.8070   39.2180 C   0  0  0  0  0  0  0  0  0  0  0  0
   18.6520   14.3390   40.2200 C   0  0  0  0  0  0  0  0  0  0  0  0
   18.5050   13.7250   41.4480 C   0  0  0  0  0  0  0  0  0  0  0  0
   17.3280   13.4050   42.0190 N   0  0  0  0  0  0  0  0  0  0  0  0
   16.4470   12.3510   41.7770 C   0  0  0  0  0  0  0  0  0  0  0  0
   15.3980   12.6510   40.9910 N   0  0  0  0  0  0  0  0  0  0  0  0
   14.5200   11.6630   40.7290 C   0  0  0  0  0  0  0  0  0  0  0  0
   14.6360   10.3830   41.2210 C   0  0  0  0  0  0  0  0  0  0  0  0
   13.6490    9.3000   40.9090 C   0  0  0  0  0  0  0  0  0  0  0  0
   13.0520    8.6530   42.1370 C   0  0  0  0  0  0  0  0  0  0  0  0
   12.9340    7.2680   42.2250 C   0  0  0  0  0  0  0  0  0  0  0  0
   12.3520    6.7150   43.3620 C   0  0  0  0  0  0  0  0  0  0  0  0
   11.9010    7.5540   44.3740 C   0  0  0  0  0  0  0  0  0  0  0  0
   12.0490    8.9190   44.2050 C   0  0  0  0  0  0  0  0  0  0  0  0
   12.6110    9.4860   43.1130 N   0  0  0  0  0  0  0  0  0  0  0  0
   15.7440   10.1750   42.0110 C   0  0  0  0  0  0  0  0  0  0  0  0
   16.6490   11.1310   42.2990 N   0  0  0  0  0  0  0  0  0  0  0  0
   19.8190   13.5350   41.9210 C   0  0  0  0  0  0  0  0  0  0  0  0
   20.7390   13.9870   41.0650 N   0  0  0  0  0  0  0  0  0  0  0  0
   20.0090   14.4640   40.0410 N   0  0  0  0  0  0  0  0  0  0  0  0
   20.6890   15.0430   38.9050 C   0  0  0  0  0  0  0  0  0  0  0  0
   16.7864   15.2227   39.7348 H   0  0  0  0  0  0  0  0  0  0  0  0
   18.1208   15.5844   38.5880 H   0  0  0  0  0  0  0  0  0  0  0  0
   17.3519   13.9610   38.5880 H   0  0  0  0  0  0  0  0  0  0  0  0
   16.9270   13.9670   42.7580 H   0  0  0  0  0  0  0  0  0  0  0  0
   13.6595   11.8932   40.0836 H   0  0  0  0  0  0  0  0  0  0  0  0
   12.8327    9.7346   40.3133 H   0  0  0  0  0  0  0  0  0  0  0  0
   14.1933    8.5151   40.3634 H   0  0  0  0  0  0  0  0  0  0  0  0
   13.2944    6.6226   41.4104 H   0  0  0  0  0  0  0  0  0  0  0  0
   12.2500    5.6240   43.4587 H   0  0  0  0  0  0  0  0  0  0  0  0
   11.4391    7.1440   45.2842 H   0  0  0  0  0  0  0  0  0  0  0  0
   11.6886    9.5820   45.0053 H   0  0  0  0  0  0  0  0  0  0  0  0
   15.8996    9.1705   42.4314 H   0  0  0  0  0  0  0  0  0  0  0  0
   20.0597   13.0669   42.8869 H   0  0  0  0  0  0  0  0  0  0  0  0
   21.4823   15.7185   39.2577 H   0  0  0  0  0  0  0  0  0  0  0  0
   21.1334   14.2418   38.2963 H   0  0  0  0  0  0  0  0  0  0  0  0
   19.9689   15.6095   38.2963 H   0  0  0  0  0  0  0  0  0  0  0  0
  1  2  1  0
  2  3  2  0
  3  4  1  0
  4  5  1  0
  5  6  2  0
  6  7  1  0
  7  8  2  0
  8  9  1  0
  9 10  1  0
 10 11  2  0
 11 12  1  0
 12 13  2  0
 13 14  1  0
 14 15  2  0
  8 16  1  0
 16 17  2  0
  3 18  1  0
 18 19  2  0
 19 20  1  0
 20 21  1  0
 20  2  1  0
 17  5  1  0
 15 10  1  0
  1 22  1  0
  1 23  1  0
  1 24  1  0
  4 25  1  0
  7 26  1  0
  9 27  1  0
  9 28  1  0
 11 29  1  0
 12 30  1  0
 13 31  1  0
 14 32  1  0
 16 33  1  0
 18 34  1  0
 21 35  1  0
 21 36  1  0
 21 37  1  0
M  END
>  <meeko>  (25) 
{"is_sidechain": false}

>  <vina_energy>  (25) 
-6.41

$$$$

     RDKit          3D

 44 46  0  0  0  0  0  0  0  0999 V2000
   18.4680   14.6130   39.1020 C   0  0  0  0  0  0  0  0  0  0  0  0
   18.4950   14.8560   40.5670 C   0  0  0  0  0  0  0  0  0  0  0  0
   18.3880   14.0070   41.6500 C   0  0  0  0  0  0  0  0  0  0  0  0
   18.2230   12.6710   41.5760 N   0  0  0  0  0  0  0  0  0  0  0  0
   17.0670   11.8960   41.5360 C   0  0  0  0  0  0  0  0  0  0  0  0
   17.0800   10.7790   42.2830 N   0  0  0  0  0  0  0  0  0  0  0  0
   15.9830   10.0010   42.2710 C   0  0  0  0  0  0  0  0  0  0  0  0
   14.8570   10.2790   41.5290 C   0  0  0  0  0  0  0  0  0  0  0  0
   13.6770    9.3770   41.4790 C   0  0  0  0  0  0  0  0  0  0  0  0
   13.6980    8.3630   42.5800 N   0  0  0  0  0  0  0  0  0  0  0  0
   12.3650    7.8740   43.0230 C   0  0  0  0  0  0  0  0  0  0  0  0
   12.3770    6.3850   43.3380 C   0  0  0  0  0  0  0  0  0  0  0  0
   11.1930    6.1980   44.2840 C   0  0  0  0  0  0  0  0  0  0  0  0
   10.8950    7.5770   44.8780 C   0  0  0  0  0  0  0  0  0  0  0  0
   11.9900    8.5000   44.3570 C   0  0  0  0  0  0  0  0  0  0  0  0
   14.9300   11.4460   40.8030 C   0  0  0  0  0  0  0  0  0  0  0  0
   16.0090   12.2440   40.7860 N   0  0  0  0  0  0  0  0  0  0  0  0
   18.4870   14.8420   42.7800 C   0  0  0  0  0  0  0  0  0  0  0  0
   18.6410   16.1260   42.4520 N   0  0  0  0  0  0  0  0  0  0  0  0
   18.6560   16.1120   41.1060 N   0  0  0  0  0  0  0  0  0  0  0  0
   18.8210   17.3570   40.3910 C   0  0  0  0  0  0  0  0  0  0  0  0
   18.3484   13.5363   38.9111 H   0  0  0  0  0  0  0  0  0  0  0  0
   17.6252   15.1605   38.6550 H   0  0  0  0  0  0  0  0  0  0  0  0
   19.4105   14.9622   38.6550 H   0  0  0  0  0  0  0  0  0  0  0  0
   19.0220   12.0500   41.5550 H   0  0  0  0  0  0  0  0  0  0  0  0
   15.9855    9.0910   42.8890 H   0  0  0  0  0  0  0  0  0  0  0  0
   12.7633    9.9824   41.5714 H   0  0  0  0  0  0  0  0  0  0  0  0
   13.7024    8.8378   40.5206 H   0  0  0  0  0  0  0  0  0  0  0  0
   14.1830    8.7740   43.3910 H   0  0  0  0  0  0  0  0  0  0  0  0
   14.2860    7.5650   42.2990 H   0  0  0  0  0  0  0  0  0  0  0  0
   11.6777    8.1226   42.2009 H   0  0  0  0  0  0  0  0  0  0  0  0
   12.2434    5.7905   42.4222 H   0  0  0  0  0  0  0  0  0  0  0  0
   13.3283    6.0533   43.7797 H   0  0  0  0  0  0  0  0  0  0  0  0
   10.3187    5.8247   43.7306 H   0  0  0  0  0  0  0  0  0  0  0  0
   11.4225    5.4649   45.0713 H   0  0  0  0  0  0  0  0  0  0  0  0
    9.9070    7.9307   44.5480 H   0  0  0  0  0  0  0  0  0  0  0  0
   10.8789    7.5489   45.9775 H   0  0  0  0  0  0  0  0  0  0  0  0
   11.6112    9.5236   44.2200 H   0  0  0  0  0  0  0  0  0  0  0  0
   12.8425    8.5907   45.0463 H   0  0  0  0  0  0  0  0  0  0  0  0
   14.0560   11.7409   40.2038 H   0  0  0  0  0  0  0  0  0  0  0  0
   18.4424   14.4765   43.8165 H   0  0  0  0  0  0  0  0  0  0  0  0
   18.9303   18.1815   41.1109 H   0  0  0  0  0  0  0  0  0  0  0  0
   19.7195   17.3006   39.7590 H   0  0  0  0  0  0  0  0  0  0  0  0
   17.9388   17.5366   39.7590 H   0  0  0  0  0  0  0  0  0  0  0  0
  1  2  1  0
  2  3  2  0
  3  4  1  0
  4  5  1  0
  5  6  2  0
  6  7  1  0
  7  8  2  0
  8  9  1  0
  9 10  1  0
 10 11  1  0
 11 12  1  0
 12 13  1  0
 13 14  1  0
 14 15  1  0
  8 16  1  0
 16 17  2  0
  3 18  1  0
 18 19  2  0
 19 20  1  0
 20 21  1  0
 20  2  1  0
 17  5  1  0
 15 11  1  0
  1 22  1  0
  1 23  1  0
  1 24  1  0
  4 25  1  0
  7 26  1  0
  9 27  1  0
  9 28  1  0
 10 29  1  0
 10 30  1  0
 11 31  1  0
 12 32  1  0
 12 33  1  0
 13 34  1  0
 13 35  1  0
 14 36  1  0
 14 37  1  0
 15 38  1  0
 15 39  1  0
 16 40  1  0
 18 41  1  0
 21 42  1  0
 21 43  1  0
 21 44  1  0
M  CHG  1  10   1
M  END
>  <meeko>  (26) 
{"is_sidechain": false}

>  <vina_energy>  (26) 
-7.03

$$$$

     RDKit          3D

 36 38  0  0  0  0  0  0  0  0999 V2000
   15.1680   13.4150   39.3700 C   0  0  0  0  0  0  0  0  0  0  0  0
   15.8770   12.5580   40.3510 C   0  0  0  0  0  0  0  0  0  0  0  0
   15.5280   11.3720   40.9650 C   0  0  0  0  0  0  0  0  0  0  0  0
   14.3730   10.7070   40.7690 N   0  0  0  0  0  0  0  0  0  0  0  0
   13.8530    9.5680   41.3830 C   0  0  0  0  0  0  0  0  0  0  0  0
   13.0990    8.6860   40.7110 N   0  0  0  0  0  0  0  0  0  0  0  0
   12.6380    7.6160   41.3880 C   0  0  0  0  0  0  0  0  0  0  0  0
   12.8960    7.3820   42.7190 C   0  0  0  0  0  0  0  0  0  0  0  0
   12.3950    6.1640   43.4240 C   0  0  0  0  0  0  0  0  0  0  0  0
   11.2600    6.4570   44.2930 N   0  0  0  0  0  0  0  0  0  0  0  0
   10.4910    5.5190   44.9340 C   0  0  0  0  0  0  0  0  0  0  0  0
    9.5360    6.1850   45.6690 C   0  0  0  0  0  0  0  0  0  0  0  0
    9.7440    7.5710   45.4760 C   0  0  0  0  0  0  0  0  0  0  0  0
   10.8200    7.7120   44.6270 C   0  0  0  0  0  0  0  0  0  0  0  0
   13.6830    8.3400   43.3200 C   0  0  0  0  0  0  0  0  0  0  0  0
   14.1670    9.4240   42.6810 N   0  0  0  0  0  0  0  0  0  0  0  0
   16.6210   11.0560   41.7980 C   0  0  0  0  0  0  0  0  0  0  0  0
   17.5950   11.9660   41.7260 N   0  0  0  0  0  0  0  0  0  0  0  0
   17.1270   12.8620   40.8390 N   0  0  0  0  0  0  0  0  0  0  0  0
   17.9380   14.0090   40.5040 C   0  0  0  0  0  0  0  0  0  0  0  0
   14.5554   14.1554   39.9053 H   0  0  0  0  0  0  0  0  0  0  0  0
   15.9034   13.9351   38.7386 H   0  0  0  0  0  0  0  0  0  0  0  0
   14.5193   12.7901   38.7386 H   0  0  0  0  0  0  0  0  0  0  0  0
   13.7050   11.0030   40.0700 H   0  0  0  0  0  0  0  0  0  0  0  0
   12.0191    6.8868   40.8446 H   0  0  0  0  0  0  0  0  0  0  0  0
   12.0839    5.4229   42.6730 H   0  0  0  0  0  0  0  0  0  0  0  0
   13.2110    5.7787   44.0531 H   0  0  0  0  0  0  0  0  0  0  0  0
   10.6154    4.4278   44.8718 H   0  0  0  0  0  0  0  0  0  0  0  0
    8.7550    5.7242   46.2917 H   0  0  0  0  0  0  0  0  0  0  0  0
    9.1550    8.3861   45.9217 H   0  0  0  0  0  0  0  0  0  0  0  0
   11.2498    8.6628   44.2789 H   0  0  0  0  0  0  0  0  0  0  0  0
   13.9311    8.2129   44.3841 H   0  0  0  0  0  0  0  0  0  0  0  0
   16.6660   10.1606   42.4353 H   0  0  0  0  0  0  0  0  0  0  0  0
   18.2828   14.4967   41.4277 H   0  0  0  0  0  0  0  0  0  0  0  0
   18.8078   13.6835   39.9145 H   0  0  0  0  0  0  0  0  0  0  0  0
   17.3411   14.7205   39.9145 H   0  0  0  0  0  0  0  0  0  0  0  0
  1  2  1  0
  2  3  2  0
  3  4  1  0
  4  5  1  0
  5  6  2  0
  6  7  1  0
  7  8  2  0
  8  9  1  0
  9 10  1  0
 10 11  1  0
 11 12  2  0
 12 13  1  0
 13 14  2  0
  8 15  1  0
 15 16  2  0
  3 17  1  0
 17 18  2  0
 18 19  1  0
 19 20  1  0
 19  2  1  0
 16  5  1  0
 14 10  1  0
  1 21  1  0
  1 22  1  0
  1 23  1  0
  4 24  1  0
  7 25  1  0
  9 26  1  0
  9 27  1  0
 11 28  1  0
 12 29  1  0
 13 30  1  0
 14 31  1  0
 15 32  1  0
 17 33  1  0
 20 34  1  0
 20 35  1  0
 20 36  1  0
M  END
>  <meeko>  (27) 
{"is_sidechain": false}

>  <vina_energy>  (27) 
-6.62

$$$$

     RDKit          3D

 41 43  0  0  0  0  0  0  0  0999 V2000
   18.5060   14.6070   39.0900 C   0  0  0  0  0  0  0  0  0  0  0  0
   18.5210   14.8310   40.5580 C   0  0  0  0  0  0  0  0  0  0  0  0
   18.3760   13.9700   41.6280 C   0  0  0  0  0  0  0  0  0  0  0  0
   18.1760   12.6400   41.5350 N   0  0  0  0  0  0  0  0  0  0  0  0
   16.9990   11.8960   41.5020 C   0  0  0  0  0  0  0  0  0  0  0  0
   16.9750   10.7990   42.2760 N   0  0  0  0  0  0  0  0  0  0  0  0
   15.8550   10.0530   42.2740 C   0  0  0  0  0  0  0  0  0  0  0  0
   14.7330   10.3570   41.5350 C   0  0  0  0  0  0  0  0  0  0  0  0
   13.4850    9.5480   41.5840 C   0  0  0  0  0  0  0  0  0  0  0  0
   13.4700    8.5250   42.6920 N   0  0  0  0  0  0  0  0  0  0  0  0
   12.9300    7.1640   42.2990 C   0  0  0  0  0  0  0  0  0  0  0  0
   12.3860    6.6180   43.6020 C   0  0  0  0  0  0  0  0  0  0  0  0
   11.7390    7.8370   44.2250 C   0  0  0  0  0  0  0  0  0  0  0  0
   12.7110    8.9670   43.9320 C   0  0  0  0  0  0  0  0  0  0  0  0
   14.8570   11.4900   40.7630 C   0  0  0  0  0  0  0  0  0  0  0  0
   15.9540   12.2620   40.7440 N   0  0  0  0  0  0  0  0  0  0  0  0
   18.4870   14.7870   42.7710 C   0  0  0  0  0  0  0  0  0  0  0  0
   18.6880   16.0700   42.4620 N   0  0  0  0  0  0  0  0  0  0  0  0
   18.6980   16.0760   41.1160 N   0  0  0  0  0  0  0  0  0  0  0  0
   18.8940   17.3270   40.4200 C   0  0  0  0  0  0  0  0  0  0  0  0
   18.4338   13.5288   38.8843 H   0  0  0  0  0  0  0  0  0  0  0  0
   17.6404   15.1231   38.6492 H   0  0  0  0  0  0  0  0  0  0  0  0
   19.4327   15.0031   38.6492 H   0  0  0  0  0  0  0  0  0  0  0  0
   18.9570   12.0020   41.4530 H   0  0  0  0  0  0  0  0  0  0  0  0
   15.8343    9.1479   42.8988 H   0  0  0  0  0  0  0  0  0  0  0  0
   12.6343   10.2300   41.7292 H   0  0  0  0  0  0  0  0  0  0  0  0
   13.4220    8.9955   40.6349 H   0  0  0  0  0  0  0  0  0  0  0  0
   14.4440    8.3740   42.9870 H   0  0  0  0  0  0  0  0  0  0  0  0
   12.1325    7.2582   41.5473 H   0  0  0  0  0  0  0  0  0  0  0  0
   13.6908    6.5134   41.8429 H   0  0  0  0  0  0  0  0  0  0  0  0
   11.6464    5.8239   43.4221 H   0  0  0  0  0  0  0  0  0  0  0  0
   13.1553    6.1568   44.2388 H   0  0  0  0  0  0  0  0  0  0  0  0
   10.7596    8.0362   43.7657 H   0  0  0  0  0  0  0  0  0  0  0  0
   11.5528    7.7106   45.3017 H   0  0  0  0  0  0  0  0  0  0  0  0
   12.1674    9.9035   43.7386 H   0  0  0  0  0  0  0  0  0  0  0  0
   13.3844    9.1616   44.7798 H   0  0  0  0  0  0  0  0  0  0  0  0
   14.0084   11.7788   40.1255 H   0  0  0  0  0  0  0  0  0  0  0  0
   18.4160   14.4098   43.8019 H   0  0  0  0  0  0  0  0  0  0  0  0
   19.0211   18.1380   41.1522 H   0  0  0  0  0  0  0  0  0  0  0  0
   19.7924   17.2587   39.7890 H   0  0  0  0  0  0  0  0  0  0  0  0
   18.0178   17.5367   39.7890 H   0  0  0  0  0  0  0  0  0  0  0  0
  1  2  1  0
  2  3  2  0
  3  4  1  0
  4  5  1  0
  5  6  2  0
  6  7  1  0
  7  8  2  0
  8  9  1  0
  9 10  1  0
 10 11  1  0
 11 12  1  0
 12 13  1  0
 13 14  1  0
  8 15  1  0
 15 16  2  0
  3 17  1  0
 17 18  2  0
 18 19  1  0
 19 20  1  0
 19  2  1  0
 16  5  1  0
 14 10  1  0
  1 21  1  0
  1 22  1  0
  1 23  1  0
  4 24  1  0
  7 25  1  0
  9 26  1  0
  9 27  1  0
 10 28  1  0
 11 29  1  0
 11 30  1  0
 12 31  1  0
 12 32  1  0
 13 33  1  0
 13 34  1  0
 14 35  1  0
 14 36  1  0
 15 37  1  0
 17 38  1  0
 20 39  1  0
 20 40  1  0
 20 41  1  0
M  CHG  1  10   1
M  END
>  <meeko>  (28) 
{"is_sidechain": false}

>  <vina_energy>  (28) 
-6.06

$$$$

     RDKit          3D

 44 46  0  0  0  0  0  0  0  0999 V2000
   17.7720   14.9210   39.2080 C   0  0  0  0  0  0  0  0  0  0  0  0
   18.7710   14.4440   40.1970 C   0  0  0  0  0  0  0  0  0  0  0  0
   18.6390   13.8140   41.4180 C   0  0  0  0  0  0  0  0  0  0  0  0
   17.4680   13.4850   42.0020 N   0  0  0  0  0  0  0  0  0  0  0  0
   16.6060   12.4150   41.7770 C   0  0  0  0  0  0  0  0  0  0  0  0
   15.5570   12.6650   40.9780 N   0  0  0  0  0  0  0  0  0  0  0  0
   14.6960   11.6580   40.7380 C   0  0  0  0  0  0  0  0  0  0  0  0
   14.8210   10.3990   41.2810 C   0  0  0  0  0  0  0  0  0  0  0  0
   13.8350    9.3100   41.0390 C   0  0  0  0  0  0  0  0  0  0  0  0
   13.4170    8.5540   42.2900 N   0  0  0  0  0  0  0  0  0  0  0  0
   12.7210    7.2560   41.9330 C   0  0  0  0  0  0  0  0  0  0  0  0
   12.4380    6.4620   43.1980 C   0  0  0  0  0  0  0  0  0  0  0  0
   11.6210    7.2700   44.2000 C   0  0  0  0  0  0  0  0  0  0  0  0
   12.2940    8.6030   44.5040 C   0  0  0  0  0  0  0  0  0  0  0  0
   12.5830    9.3950   43.2360 C   0  0  0  0  0  0  0  0  0  0  0  0
   15.9350   10.2330   42.0730 C   0  0  0  0  0  0  0  0  0  0  0  0
   16.8130   11.2130   42.3380 N   0  0  0  0  0  0  0  0  0  0  0  0
   19.9580   13.6150   41.8710 C   0  0  0  0  0  0  0  0  0  0  0  0
   20.8670   14.0870   41.0150 N   0  0  0  0  0  0  0  0  0  0  0  0
   20.1260   14.5840   40.0070 N   0  0  0  0  0  0  0  0  0  0  0  0
   20.7930   15.1830   38.8720 C   0  0  0  0  0  0  0  0  0  0  0  0
   16.9017   15.3365   39.7371 H   0  0  0  0  0  0  0  0  0  0  0  0
   18.2240   15.7005   38.5770 H   0  0  0  0  0  0  0  0  0  0  0  0
   17.4500   14.0795   38.5770 H   0  0  0  0  0  0  0  0  0  0  0  0
   17.0710   14.0660   42.7300 H   0  0  0  0  0  0  0  0  0  0  0  0
   13.8440   11.8523   40.0699 H   0  0  0  0  0  0  0  0  0  0  0  0
   12.9352    9.7541   40.5883 H   0  0  0  0  0  0  0  0  0  0  0  0
   14.3279    8.5800   40.3802 H   0  0  0  0  0  0  0  0  0  0  0  0
   14.2780    8.3020   42.7930 H   0  0  0  0  0  0  0  0  0  0  0  0
   11.7731    7.4781   41.4209 H   0  0  0  0  0  0  0  0  0  0  0  0
   13.3696    6.6653   41.2694 H   0  0  0  0  0  0  0  0  0  0  0  0
   11.8776    5.5539   42.9310 H   0  0  0  0  0  0  0  0  0  0  0  0
   13.4005    6.2080   43.6659 H   0  0  0  0  0  0  0  0  0  0  0  0
   10.6218    7.4588   43.7805 H   0  0  0  0  0  0  0  0  0  0  0  0
   11.5440    6.6949   45.1345 H   0  0  0  0  0  0  0  0  0  0  0  0
   11.6313    9.1966   45.1509 H   0  0  0  0  0  0  0  0  0  0  0  0
   13.2524    8.3954   45.0023 H   0  0  0  0  0  0  0  0  0  0  0  0
   11.6345    9.6633   42.7478 H   0  0  0  0  0  0  0  0  0  0  0  0
   13.1357   10.3101   43.4950 H   0  0  0  0  0  0  0  0  0  0  0  0
   16.1156    9.2413   42.5134 H   0  0  0  0  0  0  0  0  0  0  0  0
   20.2105   13.1256   42.8232 H   0  0  0  0  0  0  0  0  0  0  0  0
   21.5676   15.8786   39.2271 H   0  0  0  0  0  0  0  0  0  0  0  0
   21.2594   14.3947   38.2629 H   0  0  0  0  0  0  0  0  0  0  0  0
   20.0592   15.7312   38.2629 H   0  0  0  0  0  0  0  0  0  0  0  0
  1  2  1  0
  2  3  2  0
  3  4  1  0
  4  5  1  0
  5  6  2  0
  6  7  1  0
  7  8  2  0
  8  9  1  0
  9 10  1  0
 10 11  1  0
 11 12  1  0
 12 13  1  0
 13 14  1  0
 14 15  1  0
  8 16  1  0
 16 17  2  0
  3 18  1  0
 18 19  2  0
 19 20  1  0
 20 21  1  0
 20  2  1  0
 17  5  1  0
 15 10  1  0
  1 22  1  0
  1 23  1  0
  1 24  1  0
  4 25  1  0
  7 26  1  0
  9 27  1  0
  9 28  1  0
 10 29  1  0
 11 30  1  0
 11 31  1  0
 12 32  1  0
 12 33  1  0
 13 34  1  0
 13 35  1  0
 14 36  1  0
 14 37  1  0
 15 38  1  0
 15 39  1  0
 16 40  1  0
 18 41  1  0
 21 42  1  0
 21 43  1  0
 21 44  1  0
M  CHG  1  10   1
M  END
>  <meeko>  (29) 
{"is_sidechain": false}

>  <vina_energy>  (29) 
-5.96

$$$$

     RDKit          3D

 44 46  0  0  0  0  0  0  0  0999 V2000
   18.7140   14.4040   39.0960 C   0  0  0  0  0  0  0  0  0  0  0  0
   18.5720   14.6350   40.5550 C   0  0  0  0  0  0  0  0  0  0  0  0
   18.3170   13.7790   41.6090 C   0  0  0  0  0  0  0  0  0  0  0  0
   18.1270   12.4490   41.5010 N   0  0  0  0  0  0  0  0  0  0  0  0
   16.9610   11.6870   41.5510 C   0  0  0  0  0  0  0  0  0  0  0  0
   15.9390   12.1350   40.8020 N   0  0  0  0  0  0  0  0  0  0  0  0
   14.7940   11.4300   40.8230 C   0  0  0  0  0  0  0  0  0  0  0  0
   14.6120   10.2880   41.5730 C   0  0  0  0  0  0  0  0  0  0  0  0
   13.3100    9.5500   41.6310 C   0  0  0  0  0  0  0  0  0  0  0  0
   13.5360    8.0790   42.0070 C   0  0  0  0  0  0  0  0  0  0  0  0
   12.9800    7.6970   43.3560 N   0  0  0  0  0  0  0  0  0  0  0  0
   12.2210    6.3820   43.4290 C   0  0  0  0  0  0  0  0  0  0  0  0
   10.8760    6.7560   44.0240 C   0  0  0  0  0  0  0  0  0  0  0  0
   11.1970    7.9360   44.9180 C   0  0  0  0  0  0  0  0  0  0  0  0
   12.1560    8.7500   44.0720 C   0  0  0  0  0  0  0  0  0  0  0  0
   15.7150    9.9050   42.3010 C   0  0  0  0  0  0  0  0  0  0  0  0
   16.8740   10.5840   42.3100 N   0  0  0  0  0  0  0  0  0  0  0  0
   18.3080   14.6010   42.7530 C   0  0  0  0  0  0  0  0  0  0  0  0
   18.5310   15.8850   42.4600 N   0  0  0  0  0  0  0  0  0  0  0  0
   18.6880   15.8830   41.1230 N   0  0  0  0  0  0  0  0  0  0  0  0
   18.9590   17.1300   40.4460 C   0  0  0  0  0  0  0  0  0  0  0  0
   19.2831   13.4783   38.9250 H   0  0  0  0  0  0  0  0  0  0  0  0
   17.7170   14.3109   38.6408 H   0  0  0  0  0  0  0  0  0  0  0  0
   19.2472   15.2516   38.6408 H   0  0  0  0  0  0  0  0  0  0  0  0
   18.9070   11.8190   41.3650 H   0  0  0  0  0  0  0  0  0  0  0  0
   13.9549   11.7849   40.2066 H   0  0  0  0  0  0  0  0  0  0  0  0
   12.6619   10.0200   42.3854 H   0  0  0  0  0  0  0  0  0  0  0  0
   12.8351    9.5925   40.6397 H   0  0  0  0  0  0  0  0  0  0  0  0
   13.0550    7.4494   41.2440 H   0  0  0  0  0  0  0  0  0  0  0  0
   14.6244    7.9276   42.0575 H   0  0  0  0  0  0  0  0  0  0  0  0
   13.8100    7.5570   43.9510 H   0  0  0  0  0  0  0  0  0  0  0  0
   12.0960    5.9484   42.4258 H   0  0  0  0  0  0  0  0  0  0  0  0
   12.7490    5.6254   44.0280 H   0  0  0  0  0  0  0  0  0  0  0  0
   10.1641    7.0427   43.2360 H   0  0  0  0  0  0  0  0  0  0  0  0
   10.4032    5.9246   44.5673 H   0  0  0  0  0  0  0  0  0  0  0  0
   10.2902    8.5122   45.1538 H   0  0  0  0  0  0  0  0  0  0  0  0
   11.6176    7.6423   45.8911 H   0  0  0  0  0  0  0  0  0  0  0  0
   11.6097    9.3777   43.3526 H   0  0  0  0  0  0  0  0  0  0  0  0
   12.7699    9.4421   44.6671 H   0  0  0  0  0  0  0  0  0  0  0  0
   15.6437    8.9916   42.9097 H   0  0  0  0  0  0  0  0  0  0  0  0
   18.1365   14.2273   43.7733 H   0  0  0  0  0  0  0  0  0  0  0  0
   19.1310   17.9215   41.1903 H   0  0  0  0  0  0  0  0  0  0  0  0
   19.8538   17.0183   39.8161 H   0  0  0  0  0  0  0  0  0  0  0  0
   18.0985   17.3998   39.8161 H   0  0  0  0  0  0  0  0  0  0  0  0
  1  2  1  0
  2  3  2  0
  3  4  1  0
  4  5  1  0
  5  6  2  0
  6  7  1  0
  7  8  2  0
  8  9  1  0
  9 10  1  0
 10 11  1  0
 11 12  1  0
 12 13  1  0
 13 14  1  0
 14 15  1  0
  8 16  1  0
 16 17  2  0
  3 18  1  0
 18 19  2  0
 19 20  1  0
 20 21  1  0
 20  2  1  0
 17  5  1  0
 15 11  1  0
  1 22  1  0
  1 23  1  0
  1 24  1  0
  4 25  1  0
  7 26  1  0
  9 27  1  0
  9 28  1  0
 10 29  1  0
 10 30  1  0
 11 31  1  0
 12 32  1  0
 12 33  1  0
 13 34  1  0
 13 35  1  0
 14 36  1  0
 14 37  1  0
 15 38  1  0
 15 39  1  0
 16 40  1  0
 18 41  1  0
 21 42  1  0
 21 43  1  0
 21 44  1  0
M  CHG  1  11   1
M  END
>  <meeko>  (30) 
{"is_sidechain": false}

>  <vina_energy>  (30) 
-6.14

$$$$

     RDKit          3D

 38 40  0  0  0  0  0  0  0  0999 V2000
   15.0380   13.2140   39.6060 C   0  0  0  0  0  0  0  0  0  0  0  0
   15.7370   12.2950   40.5380 C   0  0  0  0  0  0  0  0  0  0  0  0
   15.3900   11.0670   41.0660 C   0  0  0  0  0  0  0  0  0  0  0  0
   14.2410   10.4090   40.8110 N   0  0  0  0  0  0  0  0  0  0  0  0
   13.6520    9.3210   41.4510 C   0  0  0  0  0  0  0  0  0  0  0  0
   13.5370    9.4170   42.7860 N   0  0  0  0  0  0  0  0  0  0  0  0
   12.9770    8.3850   43.4430 C   0  0  0  0  0  0  0  0  0  0  0  0
   12.5280    7.2370   42.8280 C   0  0  0  0  0  0  0  0  0  0  0  0
   11.9530    6.0870   43.5810 C   0  0  0  0  0  0  0  0  0  0  0  0
   11.1120    6.5090   44.7450 N   0  0  0  0  0  0  0  0  0  0  0  0
   10.6520    5.3640   45.5590 C   0  0  0  0  0  0  0  0  0  0  0  0
    9.3120    5.3950   44.8200 C   0  0  0  0  0  0  0  0  0  0  0  0
    9.7210    6.7870   44.3320 C   0  0  0  0  0  0  0  0  0  0  0  0
   12.6770    7.2340   41.4600 C   0  0  0  0  0  0  0  0  0  0  0  0
   13.2340    8.2420   40.7690 N   0  0  0  0  0  0  0  0  0  0  0  0
   16.4730   10.7040   41.8890 C   0  0  0  0  0  0  0  0  0  0  0  0
   17.4400   11.6240   41.8940 N   0  0  0  0  0  0  0  0  0  0  0  0
   16.9780   12.5750   41.0620 N   0  0  0  0  0  0  0  0  0  0  0  0
   17.7870   13.7470   40.8140 C   0  0  0  0  0  0  0  0  0  0  0  0
   14.4709   13.9596   40.1827 H   0  0  0  0  0  0  0  0  0  0  0  0
   15.7773   13.7256   38.9722 H   0  0  0  0  0  0  0  0  0  0  0  0
   14.3476   12.6381   38.9722 H   0  0  0  0  0  0  0  0  0  0  0  0
   13.6500   10.6750   40.0340 H   0  0  0  0  0  0  0  0  0  0  0  0
   12.8715    8.4625   44.5352 H   0  0  0  0  0  0  0  0  0  0  0  0
   11.3292    5.4958   42.8945 H   0  0  0  0  0  0  0  0  0  0  0  0
   12.7950    5.5020   43.9796 H   0  0  0  0  0  0  0  0  0  0  0  0
   11.5350    7.2620   45.3010 H   0  0  0  0  0  0  0  0  0  0  0  0
   11.2301    4.4407   45.4063 H   0  0  0  0  0  0  0  0  0  0  0  0
   10.6883    5.4057   46.6576 H   0  0  0  0  0  0  0  0  0  0  0  0
    9.2032    4.6402   44.0272 H   0  0  0  0  0  0  0  0  0  0  0  0
    8.3554    5.2090   45.3302 H   0  0  0  0  0  0  0  0  0  0  0  0
    9.5939    6.9411   43.2503 H   0  0  0  0  0  0  0  0  0  0  0  0
    9.1972    7.6845   44.6929 H   0  0  0  0  0  0  0  0  0  0  0  0
   12.3198    6.3566   40.9009 H   0  0  0  0  0  0  0  0  0  0  0  0
   16.5173    9.7671   42.4636 H   0  0  0  0  0  0  0  0  0  0  0  0
   18.0933   14.1907   41.7728 H   0  0  0  0  0  0  0  0  0  0  0  0
   18.6808   13.4609   40.2402 H   0  0  0  0  0  0  0  0  0  0  0  0
   17.2025   14.4813   40.2402 H   0  0  0  0  0  0  0  0  0  0  0  0
  1  2  1  0
  2  3  2  0
  3  4  1  0
  4  5  1  0
  5  6  2  0
  6  7  1  0
  7  8  2  0
  8  9  1  0
  9 10  1  0
 10 11  1  0
 11 12  1  0
 12 13  1  0
  8 14  1  0
 14 15  2  0
  3 16  1  0
 16 17  2  0
 17 18  1  0
 18 19  1  0
 18  2  1  0
 15  5  1  0
 13 10  1  0
  1 20  1  0
  1 21  1  0
  1 22  1  0
  4 23  1  0
  7 24  1  0
  9 25  1  0
  9 26  1  0
 10 27  1  0
 11 28  1  0
 11 29  1  0
 12 30  1  0
 12 31  1  0
 13 32  1  0
 13 33  1  0
 14 34  1  0
 16 35  1  0
 19 36  1  0
 19 37  1  0
 19 38  1  0
M  CHG  1  10   1
M  END
>  <meeko>  (31) 
{"is_sidechain": false}

>  <vina_energy>  (31) 
-6.14

$$$$

     RDKit          3D

 44 46  0  0  0  0  0  0  0  0999 V2000
   15.2270   13.5520   39.2730 C   0  0  0  0  0  0  0  0  0  0  0  0
   15.9540   12.6940   40.2420 C   0  0  0  0  0  0  0  0  0  0  0  0
   15.6510   11.4770   40.8170 C   0  0  0  0  0  0  0  0  0  0  0  0
   14.5220   10.7700   40.5970 N   0  0  0  0  0  0  0  0  0  0  0  0
   13.9770    9.6930   41.2890 C   0  0  0  0  0  0  0  0  0  0  0  0
   13.1290    8.8330   40.7010 N   0  0  0  0  0  0  0  0  0  0  0  0
   12.6430    7.8170   41.4280 C   0  0  0  0  0  0  0  0  0  0  0  0
   13.0130    7.5720   42.7310 C   0  0  0  0  0  0  0  0  0  0  0  0
   12.5600    6.3660   43.4750 C   0  0  0  0  0  0  0  0  0  0  0  0
   11.1120    6.4710   43.9950 N   0  0  0  0  0  0  0  0  0  0  0  0
   10.9110    7.6580   44.9510 C   0  0  0  0  0  0  0  0  0  0  0  0
    9.4560    7.7220   45.4780 C   0  0  0  0  0  0  0  0  0  0  0  0
    9.0260    6.4010   46.0660 N   0  0  0  0  0  0  0  0  0  0  0  0
    9.2100    5.2240   45.1440 C   0  0  0  0  0  0  0  0  0  0  0  0
   10.6640    5.1430   44.6170 C   0  0  0  0  0  0  0  0  0  0  0  0
   13.8700    8.5090   43.2630 C   0  0  0  0  0  0  0  0  0  0  0  0
   14.3650    9.5460   42.5660 N   0  0  0  0  0  0  0  0  0  0  0  0
   16.7500   11.1810   41.6470 C   0  0  0  0  0  0  0  0  0  0  0  0
   17.6790   12.1380   41.6230 N   0  0  0  0  0  0  0  0  0  0  0  0
   17.1870   13.0380   40.7510 N   0  0  0  0  0  0  0  0  0  0  0  0
   17.9580   14.2230   40.4480 C   0  0  0  0  0  0  0  0  0  0  0  0
   14.6098   14.2804   39.8193 H   0  0  0  0  0  0  0  0  0  0  0  0
   15.9515   14.0863   38.6408 H   0  0  0  0  0  0  0  0  0  0  0  0
   14.5810   12.9251   38.6408 H   0  0  0  0  0  0  0  0  0  0  0  0
   13.9310   10.9810   39.8020 H   0  0  0  0  0  0  0  0  0  0  0  0
   11.9103    7.1440   40.9588 H   0  0  0  0  0  0  0  0  0  0  0  0
   12.6265    5.4974   42.8034 H   0  0  0  0  0  0  0  0  0  0  0  0
   13.2128    6.2647   44.3546 H   0  0  0  0  0  0  0  0  0  0  0  0
   10.5420    6.6430   43.1510 H   0  0  0  0  0  0  0  0  0  0  0  0
   11.5960    7.5493   45.8048 H   0  0  0  0  0  0  0  0  0  0  0  0
   11.1190    8.5858   44.3979 H   0  0  0  0  0  0  0  0  0  0  0  0
    9.3903    8.4981   46.2548 H   0  0  0  0  0  0  0  0  0  0  0  0
    8.7916    7.9583   44.6337 H   0  0  0  0  0  0  0  0  0  0  0  0
    8.0240    6.4680   46.3220 H   0  0  0  0  0  0  0  0  0  0  0  0
    9.4950    6.2360   46.9740 H   0  0  0  0  0  0  0  0  0  0  0  0
    8.9757    4.2995   45.6921 H   0  0  0  0  0  0  0  0  0  0  0  0
    8.5357    5.3484   44.2839 H   0  0  0  0  0  0  0  0  0  0  0  0
   11.3341    4.8963   45.4538 H   0  0  0  0  0  0  0  0  0  0  0  0
   10.7060    4.3664   43.8391 H   0  0  0  0  0  0  0  0  0  0  0  0
   14.1660    8.4030   44.3171 H   0  0  0  0  0  0  0  0  0  0  0  0
   16.8329   10.2633   42.2478 H   0  0  0  0  0  0  0  0  0  0  0  0
   18.2721   14.7057   41.3852 H   0  0  0  0  0  0  0  0  0  0  0  0
   18.8471   13.9426   39.8641 H   0  0  0  0  0  0  0  0  0  0  0  0
   17.3414   14.9222   39.8641 H   0  0  0  0  0  0  0  0  0  0  0  0
  1  2  1  0
  2  3  2  0
  3  4  1  0
  4  5  1  0
  5  6  2  0
  6  7  1  0
  7  8  2  0
  8  9  1  0
  9 10  1  0
 10 11  1  0
 11 12  1  0
 12 13  1  0
 13 14  1  0
 14 15  1  0
  8 16  1  0
 16 17  2  0
  3 18  1  0
 18 19  2  0
 19 20  1  0
 20 21  1  0
 20  2  1  0
 17  5  1  0
 15 10  1  0
  1 22  1  0
  1 23  1  0
  1 24  1  0
  4 25  1  0
  7 26  1  0
  9 27  1  0
  9 28  1  0
 10 29  1  0
 11 30  1  0
 11 31  1  0
 12 32  1  0
 12 33  1  0
 13 34  1  0
 13 35  1  0
 14 36  1  0
 14 37  1  0
 15 38  1  0
 15 39  1  0
 16 40  1  0
 18 41  1  0
 21 42  1  0
 21 43  1  0
 21 44  1  0
M  CHG  2  10   1  13   1
M  END
>  <meeko>  (32) 
{"is_sidechain": false}

>  <vina_energy>  (32) 
-6.58

$$$$

     RDKit          3D

 42 44  0  0  0  0  0  0  0  0999 V2000
   15.1950   13.5180   39.3530 C   0  0  0  0  0  0  0  0  0  0  0  0
   15.9320   12.6460   40.3030 C   0  0  0  0  0  0  0  0  0  0  0  0
   15.6210   11.4300   40.8770 C   0  0  0  0  0  0  0  0  0  0  0  0
   14.4840   10.7380   40.6640 N   0  0  0  0  0  0  0  0  0  0  0  0
   13.9560    9.6300   41.3230 C   0  0  0  0  0  0  0  0  0  0  0  0
   14.2950    9.4970   42.6150 N   0  0  0  0  0  0  0  0  0  0  0  0
   13.8080    8.4360   43.2850 C   0  0  0  0  0  0  0  0  0  0  0  0
   13.0050    7.4720   42.7190 C   0  0  0  0  0  0  0  0  0  0  0  0
   12.5100    6.2830   43.4660 C   0  0  0  0  0  0  0  0  0  0  0  0
   11.1300    6.3890   44.0810 N   0  0  0  0  0  0  0  0  0  0  0  0
   10.6780    5.1430   44.8400 C   0  0  0  0  0  0  0  0  0  0  0  0
    9.2210    5.3240   45.2840 C   0  0  0  0  0  0  0  0  0  0  0  0
    9.0740    6.4990   46.0900 O   0  0  0  0  0  0  0  0  0  0  0  0
    9.4510    7.6890   45.3890 C   0  0  0  0  0  0  0  0  0  0  0  0
   10.9200    7.6250   44.9520 C   0  0  0  0  0  0  0  0  0  0  0  0
   12.6960    7.7030   41.3980 C   0  0  0  0  0  0  0  0  0  0  0  0
   13.1630    8.7470   40.6950 N   0  0  0  0  0  0  0  0  0  0  0  0
   16.7280   11.1180   41.6920 C   0  0  0  0  0  0  0  0  0  0  0  0
   17.6740   12.0590   41.6490 N   0  0  0  0  0  0  0  0  0  0  0  0
   17.1760   12.9710   40.7940 N   0  0  0  0  0  0  0  0  0  0  0  0
   17.9530   14.1520   40.4940 C   0  0  0  0  0  0  0  0  0  0  0  0
   14.5849   14.2399   39.9157 H   0  0  0  0  0  0  0  0  0  0  0  0
   15.9131   14.0597   38.7199 H   0  0  0  0  0  0  0  0  0  0  0  0
   14.5412   12.9002   38.7199 H   0  0  0  0  0  0  0  0  0  0  0  0
   13.8550   10.9910   39.9150 H   0  0  0  0  0  0  0  0  0  0  0  0
   14.0674    8.3331   44.3490 H   0  0  0  0  0  0  0  0  0  0  0  0
   12.4991    5.4326   42.7684 H   0  0  0  0  0  0  0  0  0  0  0  0
   13.1970    6.1716   44.3178 H   0  0  0  0  0  0  0  0  0  0  0  0
   10.4850    6.4860   43.2870 H   0  0  0  0  0  0  0  0  0  0  0  0
   10.7561    4.2638   44.1836 H   0  0  0  0  0  0  0  0  0  0  0  0
   11.3178    4.9954   45.7226 H   0  0  0  0  0  0  0  0  0  0  0  0
    8.5820    5.4160   44.3934 H   0  0  0  0  0  0  0  0  0  0  0  0
    8.9245    4.4491   45.8812 H   0  0  0  0  0  0  0  0  0  0  0  0
    8.8148    7.7991   44.4984 H   0  0  0  0  0  0  0  0  0  0  0  0
    9.3219    8.5492   46.0623 H   0  0  0  0  0  0  0  0  0  0  0  0
   11.1726    8.5279   44.3768 H   0  0  0  0  0  0  0  0  0  0  0  0
   11.5678    7.5669   45.8391 H   0  0  0  0  0  0  0  0  0  0  0  0
   12.0285    6.9919   40.8893 H   0  0  0  0  0  0  0  0  0  0  0  0
   16.8039   10.2017   42.2959 H   0  0  0  0  0  0  0  0  0  0  0  0
   18.2685   14.6315   41.4324 H   0  0  0  0  0  0  0  0  0  0  0  0
   18.8413   13.8681   39.9106 H   0  0  0  0  0  0  0  0  0  0  0  0
   17.3407   14.8554   39.9106 H   0  0  0  0  0  0  0  0  0  0  0  0
  1  2  1  0
  2  3  2  0
  3  4  1  0
  4  5  1  0
  5  6  2  0
  6  7  1  0
  7  8  2  0
  8  9  1  0
  9 10  1  0
 10 11  1  0
 11 12  1  0
 12 13  1  0
 13 14  1  0
 14 15  1  0
  8 16  1  0
 16 17  2  0
  3 18  1  0
 18 19  2  0
 19 20  1  0
 20 21  1  0
 20  2  1  0
 17  5  1  0
 15 10  1  0
  1 22  1  0
  1 23  1  0
  1 24  1  0
  4 25  1  0
  7 26  1  0
  9 27  1  0
  9 28  1  0
 10 29  1  0
 11 30  1  0
 11 31  1  0
 12 32  1  0
 12 33  1  0
 14 34  1  0
 14 35  1  0
 15 36  1  0
 15 37  1  0
 16 38  1  0
 18 39  1  0
 21 40  1  0
 21 41  1  0
 21 42  1  0
M  CHG  1  10   1
M  END
>  <meeko>  (33) 
{"is_sidechain": false}

>  <vina_energy>  (33) 
-6.29

$$$$

     RDKit          3D

 42 44  0  0  0  0  0  0  0  0999 V2000
   14.9030    9.5740   42.3160 C   0  0  0  0  0  0  0  0  0  0  0  0
   14.9910   10.6680   41.3160 C   0  0  0  0  0  0  0  0  0  0  0  0
   15.9760   11.5960   41.0410 C   0  0  0  0  0  0  0  0  0  0  0  0
   17.1540   11.6950   41.6890 N   0  0  0  0  0  0  0  0  0  0  0  0
   17.9940   12.7870   41.8920 C   0  0  0  0  0  0  0  0  0  0  0  0
   19.2660   12.6340   41.4930 N   0  0  0  0  0  0  0  0  0  0  0  0
   20.1110   13.6650   41.6760 C   0  0  0  0  0  0  0  0  0  0  0  0
   19.7510   14.8570   42.2670 C   0  0  0  0  0  0  0  0  0  0  0  0
   20.7110   15.9710   42.5010 C   0  0  0  0  0  0  0  0  0  0  0  0
   21.0720   16.2650   43.9500 N   0  0  0  0  0  0  0  0  0  0  0  0
   22.5720   16.2080   44.2220 C   0  0  0  0  0  0  0  0  0  0  0  0
   22.8620   16.1540   45.7230 C   0  0  0  0  0  0  0  0  0  0  0  0
   22.2500   17.6280   46.5950 S   0  0  0  0  0  0  0  0  0  0  0  0
   20.5310   17.6210   46.0050 C   0  0  0  0  0  0  0  0  0  0  0  0
   20.4430   17.5480   44.4800 C   0  0  0  0  0  0  0  0  0  0  0  0
   18.4240   14.9290   42.6230 C   0  0  0  0  0  0  0  0  0  0  0  0
   17.5520   13.9200   42.4590 N   0  0  0  0  0  0  0  0  0  0  0  0
   15.4650   12.3660   39.9770 C   0  0  0  0  0  0  0  0  0  0  0  0
   14.2480   11.9690   39.6000 N   0  0  0  0  0  0  0  0  0  0  0  0
   13.9840   10.9320   40.4170 N   0  0  0  0  0  0  0  0  0  0  0  0
   12.7250   10.2360   40.2860 C   0  0  0  0  0  0  0  0  0  0  0  0
   14.9373   10.0001   43.3296 H   0  0  0  0  0  0  0  0  0  0  0  0
   13.9580    9.0277   42.1797 H   0  0  0  0  0  0  0  0  0  0  0  0
   15.7485    8.8837   42.1797 H   0  0  0  0  0  0  0  0  0  0  0  0
   17.5770   10.8840   42.1230 H   0  0  0  0  0  0  0  0  0  0  0  0
   21.1501   13.5498   41.3339 H   0  0  0  0  0  0  0  0  0  0  0  0
   21.6418   15.7273   41.9678 H   0  0  0  0  0  0  0  0  0  0  0  0
   20.2000   16.8756   42.1396 H   0  0  0  0  0  0  0  0  0  0  0  0
   20.6530   15.4940   44.4870 H   0  0  0  0  0  0  0  0  0  0  0  0
   22.9892   15.3096   43.7437 H   0  0  0  0  0  0  0  0  0  0  0  0
   23.0346   17.1175   43.8111 H   0  0  0  0  0  0  0  0  0  0  0  0
   22.3736   15.2639   46.1463 H   0  0  0  0  0  0  0  0  0  0  0  0
   23.9533   16.1129   45.8546 H   0  0  0  0  0  0  0  0  0  0  0  0
   20.0138   16.7490   46.4317 H   0  0  0  0  0  0  0  0  0  0  0  0
   20.0606   18.5623   46.3253 H   0  0  0  0  0  0  0  0  0  0  0  0
   19.3851   17.5789   44.1802 H   0  0  0  0  0  0  0  0  0  0  0  0
   20.9918   18.4034   44.0591 H   0  0  0  0  0  0  0  0  0  0  0  0
   18.0561   15.8657   43.0671 H   0  0  0  0  0  0  0  0  0  0  0  0
   16.0083   13.2006   39.5097 H   0  0  0  0  0  0  0  0  0  0  0  0
   12.3231   10.0138   41.2856 H   0  0  0  0  0  0  0  0  0  0  0  0
   12.0120   10.8681   39.7363 H   0  0  0  0  0  0  0  0  0  0  0  0
   12.8811    9.2961   39.7363 H   0  0  0  0  0  0  0  0  0  0  0  0
  1  2  1  0
  2  3  2  0
  3  4  1  0
  4  5  1  0
  5  6  2  0
  6  7  1  0
  7  8  2  0
  8  9  1  0
  9 10  1  0
 10 11  1  0
 11 12  1  0
 12 13  1  0
 13 14  1  0
 14 15  1  0
  8 16  1  0
 16 17  2  0
  3 18  1  0
 18 19  2  0
 19 20  1  0
 20 21  1  0
 20  2  1  0
 17  5  1  0
 15 10  1  0
  1 22  1  0
  1 23  1  0
  1 24  1  0
  4 25  1  0
  7 26  1  0
  9 27  1  0
  9 28  1  0
 10 29  1  0
 11 30  1  0
 11 31  1  0
 12 32  1  0
 12 33  1  0
 14 34  1  0
 14 35  1  0
 15 36  1  0
 15 37  1  0
 16 38  1  0
 18 39  1  0
 21 40  1  0
 21 41  1  0
 21 42  1  0
M  CHG  1  10   1
M  END
>  <meeko>  (34) 
{"is_sidechain": false}

>  <vina_energy>  (34) 
-5.32

$$$$

     RDKit          3D

 35 37  0  0  0  0  0  0  0  0999 V2000
   15.0140   13.3690   39.4110 C   0  0  0  0  0  0  0  0  0  0  0  0
   15.7620   12.5030   40.3560 C   0  0  0  0  0  0  0  0  0  0  0  0
   15.4430   11.3060   40.9660 C   0  0  0  0  0  0  0  0  0  0  0  0
   14.2860   10.6350   40.8010 N   0  0  0  0  0  0  0  0  0  0  0  0
   13.7960    9.4880   41.4240 C   0  0  0  0  0  0  0  0  0  0  0  0
   13.1140    8.5520   40.7440 N   0  0  0  0  0  0  0  0  0  0  0  0
   12.6760    7.4800   41.4290 C   0  0  0  0  0  0  0  0  0  0  0  0
   12.8870    7.2910   42.7760 C   0  0  0  0  0  0  0  0  0  0  0  0
   12.4030    6.0790   43.5000 C   0  0  0  0  0  0  0  0  0  0  0  0
   11.1600    6.3270   44.2100 N   0  0  0  0  0  0  0  0  0  0  0  0
   10.5580    5.4910   45.1080 C   0  0  0  0  0  0  0  0  0  0  0  0
    9.3970    6.1370   45.4680 C   0  0  0  0  0  0  0  0  0  0  0  0
    9.2800    7.3320   44.8060 N   0  0  0  0  0  0  0  0  0  0  0  0
   10.3550    7.4190   44.0560 C   0  0  0  0  0  0  0  0  0  0  0  0
   13.5970    8.3020   43.3860 C   0  0  0  0  0  0  0  0  0  0  0  0
   14.0570    9.3930   42.7400 N   0  0  0  0  0  0  0  0  0  0  0  0
   16.5680   10.9840   41.7520 C   0  0  0  0  0  0  0  0  0  0  0  0
   17.5350   11.9010   41.6570 N   0  0  0  0  0  0  0  0  0  0  0  0
   17.0270   12.8080   40.8030 N   0  0  0  0  0  0  0  0  0  0  0  0
   17.8210   13.9640   40.4510 C   0  0  0  0  0  0  0  0  0  0  0  0
   14.3975   14.0827   39.9772 H   0  0  0  0  0  0  0  0  0  0  0  0
   15.7247   13.9202   38.7777 H   0  0  0  0  0  0  0  0  0  0  0  0
   14.3653   12.7460   38.7777 H   0  0  0  0  0  0  0  0  0  0  0  0
   13.5990   10.9240   40.1160 H   0  0  0  0  0  0  0  0  0  0  0  0
   12.1160    6.7087   40.8799 H   0  0  0  0  0  0  0  0  0  0  0  0
   12.2401    5.2717   42.7709 H   0  0  0  0  0  0  0  0  0  0  0  0
   13.1665    5.7994   44.2409 H   0  0  0  0  0  0  0  0  0  0  0  0
   10.9214    4.5160   45.4648 H   0  0  0  0  0  0  0  0  0  0  0  0
    8.6630    5.7475   46.1887 H   0  0  0  0  0  0  0  0  0  0  0  0
   10.5783    8.2644   43.3886 H   0  0  0  0  0  0  0  0  0  0  0  0
   13.8007    8.2142   44.4634 H   0  0  0  0  0  0  0  0  0  0  0  0
   16.6415   10.0795   42.3736 H   0  0  0  0  0  0  0  0  0  0  0  0
   18.1653   14.4653   41.3676 H   0  0  0  0  0  0  0  0  0  0  0  0
   18.6912   13.6446   39.8588 H   0  0  0  0  0  0  0  0  0  0  0  0
   17.2105   14.6616   39.8588 H   0  0  0  0  0  0  0  0  0  0  0  0
  1  2  1  0
  2  3  2  0
  3  4  1  0
  4  5  1  0
  5  6  2  0
  6  7  1  0
  7  8  2  0
  8  9  1  0
  9 10  1  0
 10 11  1  0
 11 12  2  0
 12 13  1  0
 13 14  2  0
  8 15  1  0
 15 16  2  0
  3 17  1  0
 17 18  2  0
 18 19  1  0
 19 20  1  0
 19  2  1  0
 16  5  1  0
 14 10  1  0
  1 21  1  0
  1 22  1  0
  1 23  1  0
  4 24  1  0
  7 25  1  0
  9 26  1  0
  9 27  1  0
 11 28  1  0
 12 29  1  0
 14 30  1  0
 15 31  1  0
 17 32  1  0
 20 33  1  0
 20 34  1  0
 20 35  1  0
M  END
>  <meeko>  (35) 
{"is_sidechain": false}

>  <vina_energy>  (35) 
-6.80

$$$$

     RDKit          3D

 34 36  0  0  0  0  0  0  0  0999 V2000
   14.9940   13.3350   39.4300 C   0  0  0  0  0  0  0  0  0  0  0  0
   15.7650   12.4920   40.3760 C   0  0  0  0  0  0  0  0  0  0  0  0
   15.4790   11.2860   40.9840 C   0  0  0  0  0  0  0  0  0  0  0  0
   14.3430   10.5830   40.8150 N   0  0  0  0  0  0  0  0  0  0  0  0
   13.8270    9.4910   41.5130 C   0  0  0  0  0  0  0  0  0  0  0  0
   13.1660    8.5920   40.7650 N   0  0  0  0  0  0  0  0  0  0  0  0
   12.6450    7.5200   41.3960 C   0  0  0  0  0  0  0  0  0  0  0  0
   12.7570    7.3020   42.7520 C   0  0  0  0  0  0  0  0  0  0  0  0
   12.1820    6.1030   43.4330 C   0  0  0  0  0  0  0  0  0  0  0  0
   11.0350    6.4510   44.2480 N   0  0  0  0  0  0  0  0  0  0  0  0
   10.4750    5.7400   45.2680 C   0  0  0  0  0  0  0  0  0  0  0  0
    9.4240    6.5260   45.6730 C   0  0  0  0  0  0  0  0  0  0  0  0
    9.3740    7.6530   44.9040 N   0  0  0  0  0  0  0  0  0  0  0  0
   10.3680    7.5970   44.0260 N   0  0  0  0  0  0  0  0  0  0  0  0
   13.4550    8.2760   43.4290 C   0  0  0  0  0  0  0  0  0  0  0  0
   13.9870    9.3620   42.8390 N   0  0  0  0  0  0  0  0  0  0  0  0
   16.6080   10.9990   41.7770 C   0  0  0  0  0  0  0  0  0  0  0  0
   17.5480   11.9440   41.6850 N   0  0  0  0  0  0  0  0  0  0  0  0
   17.0180   12.8350   40.8270 N   0  0  0  0  0  0  0  0  0  0  0  0
   17.7740   14.0170   40.4850 C   0  0  0  0  0  0  0  0  0  0  0  0
   14.3570   14.0315   39.9949 H   0  0  0  0  0  0  0  0  0  0  0  0
   15.6894   13.9055   38.7968 H   0  0  0  0  0  0  0  0  0  0  0  0
   14.3638   12.6932   38.7968 H   0  0  0  0  0  0  0  0  0  0  0  0
   13.6820   10.8110   40.0850 H   0  0  0  0  0  0  0  0  0  0  0  0
   12.0999    6.7778   40.7943 H   0  0  0  0  0  0  0  0  0  0  0  0
   11.8700    5.3745   42.6701 H   0  0  0  0  0  0  0  0  0  0  0  0
   12.9545    5.6772   44.0902 H   0  0  0  0  0  0  0  0  0  0  0  0
   10.7906    4.7665   45.6713 H   0  0  0  0  0  0  0  0  0  0  0  0
    8.7294    6.2846   46.4911 H   0  0  0  0  0  0  0  0  0  0  0  0
   13.5855    8.1600   44.5151 H   0  0  0  0  0  0  0  0  0  0  0  0
   16.7045   10.0985   42.4013 H   0  0  0  0  0  0  0  0  0  0  0  0
   18.0983   14.5240   41.4058 H   0  0  0  0  0  0  0  0  0  0  0  0
   18.6564   13.7297   39.8944 H   0  0  0  0  0  0  0  0  0  0  0  0
   17.1432   14.6976   39.8944 H   0  0  0  0  0  0  0  0  0  0  0  0
  1  2  1  0
  2  3  2  0
  3  4  1  0
  4  5  1  0
  5  6  2  0
  6  7  1  0
  7  8  2  0
  8  9  1  0
  9 10  1  0
 10 11  1  0
 11 12  2  0
 12 13  1  0
 13 14  2  0
  8 15  1  0
 15 16  2  0
  3 17  1  0
 17 18  2  0
 18 19  1  0
 19 20  1  0
 19  2  1  0
 16  5  1  0
 14 10  1  0
  1 21  1  0
  1 22  1  0
  1 23  1  0
  4 24  1  0
  7 25  1  0
  9 26  1  0
  9 27  1  0
 11 28  1  0
 12 29  1  0
 15 30  1  0
 17 31  1  0
 20 32  1  0
 20 33  1  0
 20 34  1  0
M  END
>  <meeko>  (36) 
{"is_sidechain": false}

>  <vina_energy>  (36) 
-7.00

$$$$

     RDKit          3D

 41 43  0  0  0  0  0  0  0  0999 V2000
   18.3480   14.4280   38.9970 C   0  0  0  0  0  0  0  0  0  0  0  0
   18.4280   14.7200   40.4500 C   0  0  0  0  0  0  0  0  0  0  0  0
   18.3440   13.9090   41.5640 C   0  0  0  0  0  0  0  0  0  0  0  0
   18.1560   12.5740   41.5420 N   0  0  0  0  0  0  0  0  0  0  0  0
   16.9870   11.8160   41.5190 C   0  0  0  0  0  0  0  0  0  0  0  0
   16.9840   10.7250   42.3030 N   0  0  0  0  0  0  0  0  0  0  0  0
   15.8740    9.9650   42.3130 C   0  0  0  0  0  0  0  0  0  0  0  0
   14.7460   10.2500   41.5740 C   0  0  0  0  0  0  0  0  0  0  0  0
   13.4980    9.4300   41.6460 C   0  0  0  0  0  0  0  0  0  0  0  0
   13.3790    8.7210   43.0010 C   0  0  0  0  0  0  0  0  0  0  0  0
   12.0730    8.0070   43.1010 N   0  0  0  0  0  0  0  0  0  0  0  0
   12.2720    6.5460   43.2480 C   0  0  0  0  0  0  0  0  0  0  0  0
   11.1600    6.5640   44.3050 C   0  0  0  0  0  0  0  0  0  0  0  0
   11.5010    8.0510   44.4650 C   0  0  0  0  0  0  0  0  0  0  0  0
   14.8460   11.3830   40.7980 C   0  0  0  0  0  0  0  0  0  0  0  0
   15.9330   12.1690   40.7650 N   0  0  0  0  0  0  0  0  0  0  0  0
   18.4970   14.7780   42.6620 C   0  0  0  0  0  0  0  0  0  0  0  0
   18.6690   16.0480   42.2860 N   0  0  0  0  0  0  0  0  0  0  0  0
   18.6130   15.9910   40.9420 N   0  0  0  0  0  0  0  0  0  0  0  0
   18.7550   17.2110   40.1810 C   0  0  0  0  0  0  0  0  0  0  0  0
   18.0600   13.3767   38.8496 H   0  0  0  0  0  0  0  0  0  0  0  0
   17.5961   15.0828   38.5323 H   0  0  0  0  0  0  0  0  0  0  0  0
   19.3286   14.6081   38.5323 H   0  0  0  0  0  0  0  0  0  0  0  0
   18.9410   11.9360   41.5250 H   0  0  0  0  0  0  0  0  0  0  0  0
   15.8662    9.0657   42.9464 H   0  0  0  0  0  0  0  0  0  0  0  0
   12.6275   10.0881   41.5075 H   0  0  0  0  0  0  0  0  0  0  0  0
   13.5361    8.6666   40.8550 H   0  0  0  0  0  0  0  0  0  0  0  0
   14.1983    7.9941   43.1030 H   0  0  0  0  0  0  0  0  0  0  0  0
   13.4378    9.4716   43.8030 H   0  0  0  0  0  0  0  0  0  0  0  0
   11.3980    8.2410   42.3590 H   0  0  0  0  0  0  0  0  0  0  0  0
   12.0386    5.9590   42.3475 H   0  0  0  0  0  0  0  0  0  0  0  0
   13.2625    6.1169   43.4597 H   0  0  0  0  0  0  0  0  0  0  0  0
   10.1498    6.3558   43.9226 H   0  0  0  0  0  0  0  0  0  0  0  0
   11.1339    5.8646   45.1536 H   0  0  0  0  0  0  0  0  0  0  0  0
   10.6283    8.7116   44.5743 H   0  0  0  0  0  0  0  0  0  0  0  0
   12.0831    8.4198   45.3224 H   0  0  0  0  0  0  0  0  0  0  0  0
   13.9864   11.6593   40.1697 H   0  0  0  0  0  0  0  0  0  0  0  0
   18.4771   14.4478   43.7111 H   0  0  0  0  0  0  0  0  0  0  0  0
   18.8542   18.0632   40.8695 H   0  0  0  0  0  0  0  0  0  0  0  0
   19.6516   17.1455   39.5471 H   0  0  0  0  0  0  0  0  0  0  0  0
   17.8673   17.3532   39.5471 H   0  0  0  0  0  0  0  0  0  0  0  0
  1  2  1  0
  2  3  2  0
  3  4  1  0
  4  5  1  0
  5  6  2  0
  6  7  1  0
  7  8  2  0
  8  9  1  0
  9 10  1  0
 10 11  1  0
 11 12  1  0
 12 13  1  0
 13 14  1  0
  8 15  1  0
 15 16  2  0
  3 17  1  0
 17 18  2  0
 18 19  1  0
 19 20  1  0
 19  2  1  0
 16  5  1  0
 14 11  1  0
  1 21  1  0
  1 22  1  0
  1 23  1  0
  4 24  1  0
  7 25  1  0
  9 26  1  0
  9 27  1  0
 10 28  1  0
 10 29  1  0
 11 30  1  0
 12 31  1  0
 12 32  1  0
 13 33  1  0
 13 34  1  0
 14 35  1  0
 14 36  1  0
 15 37  1  0
 17 38  1  0
 20 39  1  0
 20 40  1  0
 20 41  1  0
M  CHG  1  11   1
M  END
>  <meeko>  (37) 
{"is_sidechain": false}

>  <vina_energy>  (37) 
-6.21

$$$$

     RDKit          3D

 38 40  0  0  0  0  0  0  0  0999 V2000
   18.1760   14.4320   39.0160 C   0  0  0  0  0  0  0  0  0  0  0  0
   18.3380   14.7080   40.4650 C   0  0  0  0  0  0  0  0  0  0  0  0
   18.3220   13.8850   41.5720 C   0  0  0  0  0  0  0  0  0  0  0  0
   18.1440   12.5500   41.5440 N   0  0  0  0  0  0  0  0  0  0  0  0
   16.9820   11.7780   41.5660 C   0  0  0  0  0  0  0  0  0  0  0  0
   15.8770   12.1500   40.9000 N   0  0  0  0  0  0  0  0  0  0  0  0
   14.8040   11.3430   40.9760 C   0  0  0  0  0  0  0  0  0  0  0  0
   14.7780   10.1710   41.6950 C   0  0  0  0  0  0  0  0  0  0  0  0
   13.5600    9.3080   41.7930 C   0  0  0  0  0  0  0  0  0  0  0  0
   13.7610    8.1550   42.7760 C   0  0  0  0  0  0  0  0  0  0  0  0
   12.5290    7.8060   43.4550 N   0  0  0  0  0  0  0  0  0  0  0  0
   11.9650    6.5640   43.5190 C   0  0  0  0  0  0  0  0  0  0  0  0
   10.8240    6.7350   44.2680 C   0  0  0  0  0  0  0  0  0  0  0  0
   10.6860    8.0440   44.6510 N   0  0  0  0  0  0  0  0  0  0  0  0
   11.7230    8.6680   44.1390 C   0  0  0  0  0  0  0  0  0  0  0  0
   15.9550    9.8760   42.3460 C   0  0  0  0  0  0  0  0  0  0  0  0
   17.0540   10.6530   42.2980 N   0  0  0  0  0  0  0  0  0  0  0  0
   18.5290   14.7440   42.6700 C   0  0  0  0  0  0  0  0  0  0  0  0
   18.6660   16.0200   42.2990 N   0  0  0  0  0  0  0  0  0  0  0  0
   18.5470   15.9740   40.9590 N   0  0  0  0  0  0  0  0  0  0  0  0
   18.6430   17.2010   40.2030 C   0  0  0  0  0  0  0  0  0  0  0  0
   17.6234   13.4904   38.8816 H   0  0  0  0  0  0  0  0  0  0  0  0
   17.6177   15.2551   38.5461 H   0  0  0  0  0  0  0  0  0  0  0  0
   19.1669   14.3458   38.5461 H   0  0  0  0  0  0  0  0  0  0  0  0
   18.9280   11.9120   41.4940 H   0  0  0  0  0  0  0  0  0  0  0  0
   13.8946   11.6373   40.4316 H   0  0  0  0  0  0  0  0  0  0  0  0
   12.7139    9.9231   42.1333 H   0  0  0  0  0  0  0  0  0  0  0  0
   13.3622    8.8803   40.7990 H   0  0  0  0  0  0  0  0  0  0  0  0
   14.1248    7.2758   42.2241 H   0  0  0  0  0  0  0  0  0  0  0  0
   14.4906    8.4753   43.5343 H   0  0  0  0  0  0  0  0  0  0  0  0
   12.3403    5.6323   43.0705 H   0  0  0  0  0  0  0  0  0  0  0  0
   10.1185    5.9310   44.5246 H   0  0  0  0  0  0  0  0  0  0  0  0
   11.9160    9.7455   44.2479 H   0  0  0  0  0  0  0  0  0  0  0  0
   16.0003    8.9514   42.9402 H   0  0  0  0  0  0  0  0  0  0  0  0
   18.5728   14.4023   43.7147 H   0  0  0  0  0  0  0  0  0  0  0  0
   18.7097   18.0536   40.8948 H   0  0  0  0  0  0  0  0  0  0  0  0
   19.5416   17.1718   39.5692 H   0  0  0  0  0  0  0  0  0  0  0  0
   17.7508   17.3120   39.5692 H   0  0  0  0  0  0  0  0  0  0  0  0
  1  2  1  0
  2  3  2  0
  3  4  1  0
  4  5  1  0
  5  6  2  0
  6  7  1  0
  7  8  2  0
  8  9  1  0
  9 10  1  0
 10 11  1  0
 11 12  1  0
 12 13  2  0
 13 14  1  0
 14 15  2  0
  8 16  1  0
 16 17  2  0
  3 18  1  0
 18 19  2  0
 19 20  1  0
 20 21  1  0
 20  2  1  0
 17  5  1  0
 15 11  1  0
  1 22  1  0
  1 23  1  0
  1 24  1  0
  4 25  1  0
  7 26  1  0
  9 27  1  0
  9 28  1  0
 10 29  1  0
 10 30  1  0
 12 31  1  0
 13 32  1  0
 15 33  1  0
 16 34  1  0
 18 35  1  0
 21 36  1  0
 21 37  1  0
 21 38  1  0
M  END
>  <meeko>  (38) 
{"is_sidechain": false}

>  <vina_energy>  (38) 
-6.15

$$$$

     RDKit          3D

 36 38  0  0  0  0  0  0  0  0999 V2000
   17.6120   14.7240   39.2040 C   0  0  0  0  0  0  0  0  0  0  0  0
   18.6030   14.2900   40.2190 C   0  0  0  0  0  0  0  0  0  0  0  0
   18.4610   13.6890   41.4530 C   0  0  0  0  0  0  0  0  0  0  0  0
   17.2870   13.3560   42.0230 N   0  0  0  0  0  0  0  0  0  0  0  0
   16.3690   12.3510   41.7170 C   0  0  0  0  0  0  0  0  0  0  0  0
   16.6100   11.1630   42.2980 N   0  0  0  0  0  0  0  0  0  0  0  0
   15.7480   10.1610   42.0330 C   0  0  0  0  0  0  0  0  0  0  0  0
   14.6420   10.2960   41.2250 C   0  0  0  0  0  0  0  0  0  0  0  0
   13.7090    9.1620   40.9340 C   0  0  0  0  0  0  0  0  0  0  0  0
   13.1020    8.5710   42.1810 C   0  0  0  0  0  0  0  0  0  0  0  0
   12.6040    9.4220   43.0980 N   0  0  0  0  0  0  0  0  0  0  0  0
   12.0300    8.8650   44.1820 C   0  0  0  0  0  0  0  0  0  0  0  0
   11.9390    7.5080   44.3790 C   0  0  0  0  0  0  0  0  0  0  0  0
   12.4770    6.7270   43.3840 C   0  0  0  0  0  0  0  0  0  0  0  0
   13.0620    7.2260   42.2790 N   0  0  0  0  0  0  0  0  0  0  0  0
   14.4950   11.5430   40.6620 C   0  0  0  0  0  0  0  0  0  0  0  0
   15.3300   12.5730   40.8970 N   0  0  0  0  0  0  0  0  0  0  0  0
   19.7760   13.5240   41.9340 C   0  0  0  0  0  0  0  0  0  0  0  0
   20.6930   13.9830   41.0780 N   0  0  0  0  0  0  0  0  0  0  0  0
   19.9590   14.4470   40.0500 N   0  0  0  0  0  0  0  0  0  0  0  0
   20.6340   15.0320   38.9130 C   0  0  0  0  0  0  0  0  0  0  0  0
   16.7171   15.1159   39.7095 H   0  0  0  0  0  0  0  0  0  0  0  0
   18.0523   15.5117   38.5750 H   0  0  0  0  0  0  0  0  0  0  0  0
   17.3318   13.8662   38.5750 H   0  0  0  0  0  0  0  0  0  0  0  0
   16.9220   13.8600   42.8210 H   0  0  0  0  0  0  0  0  0  0  0  0
   15.9397    9.1785   42.4890 H   0  0  0  0  0  0  0  0  0  0  0  0
   12.8979    9.5308   40.2889 H   0  0  0  0  0  0  0  0  0  0  0  0
   14.2930    8.3701   40.4423 H   0  0  0  0  0  0  0  0  0  0  0  0
   11.6119    9.5319   44.9504 H   0  0  0  0  0  0  0  0  0  0  0  0
   11.4670    7.0755   45.2735 H   0  0  0  0  0  0  0  0  0  0  0  0
   12.4268    5.6340   43.4969 H   0  0  0  0  0  0  0  0  0  0  0  0
   13.6470   11.7079   39.9811 H   0  0  0  0  0  0  0  0  0  0  0  0
   20.0195   13.0684   42.9052 H   0  0  0  0  0  0  0  0  0  0  0  0
   21.4215   15.7145   39.2653 H   0  0  0  0  0  0  0  0  0  0  0  0
   21.0853   14.2346   38.3043 H   0  0  0  0  0  0  0  0  0  0  0  0
   19.9088   15.5920   38.3043 H   0  0  0  0  0  0  0  0  0  0  0  0
  1  2  1  0
  2  3  2  0
  3  4  1  0
  4  5  1  0
  5  6  2  0
  6  7  1  0
  7  8  2  0
  8  9  1  0
  9 10  1  0
 10 11  2  0
 11 12  1  0
 12 13  2  0
 13 14  1  0
 14 15  2  0
  8 16  1  0
 16 17  2  0
  3 18  1  0
 18 19  2  0
 19 20  1  0
 20 21  1  0
 20  2  1  0
 17  5  1  0
 15 10  1  0
  1 22  1  0
  1 23  1  0
  1 24  1  0
  4 25  1  0
  7 26  1  0
  9 27  1  0
  9 28  1  0
 12 29  1  0
 13 30  1  0
 14 31  1  0
 16 32  1  0
 18 33  1  0
 21 34  1  0
 21 35  1  0
 21 36  1  0
M  END
>  <meeko>  (39) 
{"is_sidechain": false}

>  <vina_energy>  (39) 
-6.37

$$$$

     RDKit          3D

 37 39  0  0  0  0  0  0  0  0999 V2000
   15.3630   13.5990   39.1990 C   0  0  0  0  0  0  0  0  0  0  0  0
   16.0420   12.7730   40.2280 C   0  0  0  0  0  0  0  0  0  0  0  0
   15.6720   11.6090   40.8700 C   0  0  0  0  0  0  0  0  0  0  0  0
   14.5220   10.9400   40.6620 N   0  0  0  0  0  0  0  0  0  0  0  0
   14.0140    9.7810   41.2510 C   0  0  0  0  0  0  0  0  0  0  0  0
   14.3780    9.5820   42.5290 N   0  0  0  0  0  0  0  0  0  0  0  0
   13.9070    8.4760   43.1410 C   0  0  0  0  0  0  0  0  0  0  0  0
   13.0870    7.5520   42.5340 C   0  0  0  0  0  0  0  0  0  0  0  0
   12.5860    6.3210   43.2250 C   0  0  0  0  0  0  0  0  0  0  0  0
   11.3910    6.5520   44.1120 C   0  0  0  0  0  0  0  0  0  0  0  0
   10.7180    5.4920   44.7280 C   0  0  0  0  0  0  0  0  0  0  0  0
    9.6180    5.7520   45.5410 C   0  0  0  0  0  0  0  0  0  0  0  0
    9.2280    7.0690   45.7170 C   0  0  0  0  0  0  0  0  0  0  0  0
    9.8560    8.1180   45.1450 N   0  0  0  0  0  0  0  0  0  0  0  0
   10.9200    7.8380   44.3610 C   0  0  0  0  0  0  0  0  0  0  0  0
   12.7790    7.8430   41.2240 C   0  0  0  0  0  0  0  0  0  0  0  0
   13.2230    8.9360   40.5730 N   0  0  0  0  0  0  0  0  0  0  0  0
   16.7390   11.3190   41.7450 C   0  0  0  0  0  0  0  0  0  0  0  0
   17.7200   12.2240   41.6690 N   0  0  0  0  0  0  0  0  0  0  0  0
   17.2780   13.0900   40.7390 N   0  0  0  0  0  0  0  0  0  0  0  0
   18.1020   14.2250   40.3900 C   0  0  0  0  0  0  0  0  0  0  0  0
   14.7386   14.3586   39.6920 H   0  0  0  0  0  0  0  0  0  0  0  0
   16.1174   14.0957   38.5711 H   0  0  0  0  0  0  0  0  0  0  0  0
   14.7297   12.9550   38.5711 H   0  0  0  0  0  0  0  0  0  0  0  0
   13.8460   11.2490   39.9770 H   0  0  0  0  0  0  0  0  0  0  0  0
   14.1956    8.3021   44.1881 H   0  0  0  0  0  0  0  0  0  0  0  0
   12.3080    5.5838   42.4573 H   0  0  0  0  0  0  0  0  0  0  0  0
   13.4001    5.9721   43.8773 H   0  0  0  0  0  0  0  0  0  0  0  0
   11.0563    4.4572   44.5708 H   0  0  0  0  0  0  0  0  0  0  0  0
    9.0726    4.9320   46.0311 H   0  0  0  0  0  0  0  0  0  0  0  0
    8.3579    7.2716   46.3587 H   0  0  0  0  0  0  0  0  0  0  0  0
   11.4478    8.6800   43.8893 H   0  0  0  0  0  0  0  0  0  0  0  0
   12.1322    7.1417   40.6764 H   0  0  0  0  0  0  0  0  0  0  0  0
   16.7616   10.4466   42.4146 H   0  0  0  0  0  0  0  0  0  0  0  0
   18.4582   14.7156   41.3079 H   0  0  0  0  0  0  0  0  0  0  0  0
   18.9643   13.8840   39.7983 H   0  0  0  0  0  0  0  0  0  0  0  0
   17.5107   14.9393   39.7983 H   0  0  0  0  0  0  0  0  0  0  0  0
  1  2  1  0
  2  3  2  0
  3  4  1  0
  4  5  1  0
  5  6  2  0
  6  7  1  0
  7  8  2  0
  8  9  1  0
  9 10  1  0
 10 11  2  0
 11 12  1  0
 12 13  2  0
 13 14  1  0
 14 15  2  0
  8 16  1  0
 16 17  2  0
  3 18  1  0
 18 19  2  0
 19 20  1  0
 20 21  1  0
 20  2  1  0
 17  5  1  0
 15 10  1  0
  1 22  1  0
  1 23  1  0
  1 24  1  0
  4 25  1  0
  7 26  1  0
  9 27  1  0
  9 28  1  0
 11 29  1  0
 12 30  1  0
 13 31  1  0
 15 32  1  0
 16 33  1  0
 18 34  1  0
 21 35  1  0
 21 36  1  0
 21 37  1  0
M  END
>  <meeko>  (40) 
{"is_sidechain": false}

>  <vina_energy>  (40) 
-7.17

$$$$

     RDKit          3D

 35 37  0  0  0  0  0  0  0  0999 V2000
   18.8110   14.6620   39.2320 C   0  0  0  0  0  0  0  0  0  0  0  0
   18.6580   14.8880   40.6910 C   0  0  0  0  0  0  0  0  0  0  0  0
   18.3910   14.0240   41.7340 C   0  0  0  0  0  0  0  0  0  0  0  0
   18.2090   12.6950   41.6130 N   0  0  0  0  0  0  0  0  0  0  0  0
   17.0470   11.9320   41.5040 C   0  0  0  0  0  0  0  0  0  0  0  0
   16.1560   12.3740   40.6010 N   0  0  0  0  0  0  0  0  0  0  0  0
   15.0170   11.6650   40.4570 C   0  0  0  0  0  0  0  0  0  0  0  0
   14.7280   10.5250   41.1750 C   0  0  0  0  0  0  0  0  0  0  0  0
   13.4540    9.7580   41.0020 C   0  0  0  0  0  0  0  0  0  0  0  0
   13.1020    8.9360   42.1990 C   0  0  0  0  0  0  0  0  0  0  0  0
   12.4650    9.3530   43.2750 N   0  0  0  0  0  0  0  0  0  0  0  0
   12.3590    8.2570   44.0920 C   0  0  0  0  0  0  0  0  0  0  0  0
   12.9350    7.1570   43.5050 C   0  0  0  0  0  0  0  0  0  0  0  0
   13.4050    7.5990   42.3000 N   0  0  0  0  0  0  0  0  0  0  0  0
   15.6970   10.1640   42.0820 C   0  0  0  0  0  0  0  0  0  0  0  0
   16.8510   10.8360   42.2550 N   0  0  0  0  0  0  0  0  0  0  0  0
   18.3580   14.8370   42.8830 C   0  0  0  0  0  0  0  0  0  0  0  0
   18.5910   16.1230   42.6050 N   0  0  0  0  0  0  0  0  0  0  0  0
   18.7770   16.1280   41.2710 N   0  0  0  0  0  0  0  0  0  0  0  0
   19.0610   17.3800   40.6100 C   0  0  0  0  0  0  0  0  0  0  0  0
   19.4203   13.7620   39.0623 H   0  0  0  0  0  0  0  0  0  0  0  0
   17.8193   14.5247   38.7762 H   0  0  0  0  0  0  0  0  0  0  0  0
   19.3068   15.5318   38.7762 H   0  0  0  0  0  0  0  0  0  0  0  0
   18.9910   12.0530   41.5900 H   0  0  0  0  0  0  0  0  0  0  0  0
   14.2764   12.0175   39.7240 H   0  0  0  0  0  0  0  0  0  0  0  0
   12.6379   10.4712   40.8139 H   0  0  0  0  0  0  0  0  0  0  0  0
   13.5971    9.0671   40.1581 H   0  0  0  0  0  0  0  0  0  0  0  0
   11.8787    8.2585   45.0816 H   0  0  0  0  0  0  0  0  0  0  0  0
   13.0034    6.1391   43.9162 H   0  0  0  0  0  0  0  0  0  0  0  0
   13.8750    7.0410   41.6000 H   0  0  0  0  0  0  0  0  0  0  0  0
   15.5187    9.2736   42.7028 H   0  0  0  0  0  0  0  0  0  0  0  0
   18.1623   14.4561   43.8962 H   0  0  0  0  0  0  0  0  0  0  0  0
   19.2381   18.1609   41.3642 H   0  0  0  0  0  0  0  0  0  0  0  0
   19.9565   17.2677   39.9811 H   0  0  0  0  0  0  0  0  0  0  0  0
   18.2047   17.6651   39.9811 H   0  0  0  0  0  0  0  0  0  0  0  0
  1  2  1  0
  2  3  2  0
  3  4  1  0
  4  5  1  0
  5  6  2  0
  6  7  1  0
  7  8  2  0
  8  9  1  0
  9 10  1  0
 10 11  2  0
 11 12  1  0
 12 13  2  0
 13 14  1  0
  8 15  1  0
 15 16  2  0
  3 17  1  0
 17 18  2  0
 18 19  1  0
 19 20  1  0
 19  2  1  0
 16  5  1  0
 14 10  1  0
  1 21  1  0
  1 22  1  0
  1 23  1  0
  4 24  1  0
  7 25  1  0
  9 26  1  0
  9 27  1  0
 12 28  1  0
 13 29  1  0
 14 30  1  0
 15 31  1  0
 17 32  1  0
 20 33  1  0
 20 34  1  0
 20 35  1  0
M  END
>  <meeko>  (41) 
{"is_sidechain": false}

>  <vina_energy>  (41) 
-6.59

$$$$

     RDKit          3D

 38 40  0  0  0  0  0  0  0  0999 V2000
   18.3660   14.4530   39.0280 C   0  0  0  0  0  0  0  0  0  0  0  0
   18.4270   14.7420   40.4810 C   0  0  0  0  0  0  0  0  0  0  0  0
   18.3500   13.9250   41.5910 C   0  0  0  0  0  0  0  0  0  0  0  0
   18.1870   12.5880   41.5600 N   0  0  0  0  0  0  0  0  0  0  0  0
   17.0350   11.8030   41.5290 C   0  0  0  0  0  0  0  0  0  0  0  0
   15.9780   12.1350   40.7710 N   0  0  0  0  0  0  0  0  0  0  0  0
   14.9090   11.3180   40.8070 C   0  0  0  0  0  0  0  0  0  0  0  0
   14.8460   10.1720   41.5670 C   0  0  0  0  0  0  0  0  0  0  0  0
   13.6600    9.2570   41.5570 C   0  0  0  0  0  0  0  0  0  0  0  0
   12.8720    9.3430   42.8670 C   0  0  0  0  0  0  0  0  0  0  0  0
   12.3890    8.0030   43.3090 C   0  0  0  0  0  0  0  0  0  0  0  0
   13.0420    6.8620   43.2400 N   0  0  0  0  0  0  0  0  0  0  0  0
   12.1950    5.9150   43.7520 C   0  0  0  0  0  0  0  0  0  0  0  0
   11.0060    6.4840   44.1340 C   0  0  0  0  0  0  0  0  0  0  0  0
   11.1380    7.8130   43.8440 N   0  0  0  0  0  0  0  0  0  0  0  0
   15.9790    9.9150   42.3050 C   0  0  0  0  0  0  0  0  0  0  0  0
   17.0710   10.7040   42.3040 N   0  0  0  0  0  0  0  0  0  0  0  0
   18.4770   14.7920   42.6950 C   0  0  0  0  0  0  0  0  0  0  0  0
   18.6220   16.0680   42.3250 N   0  0  0  0  0  0  0  0  0  0  0  0
   18.5850   16.0130   40.9810 N   0  0  0  0  0  0  0  0  0  0  0  0
   18.7180   17.2370   40.2250 C   0  0  0  0  0  0  0  0  0  0  0  0
   18.1410   13.3871   38.8753 H   0  0  0  0  0  0  0  0  0  0  0  0
   17.5771   15.0642   38.5654 H   0  0  0  0  0  0  0  0  0  0  0  0
   19.3346   14.6932   38.5654 H   0  0  0  0  0  0  0  0  0  0  0  0
   18.9790   11.9580   41.5580 H   0  0  0  0  0  0  0  0  0  0  0  0
   14.0348   11.5814   40.1934 H   0  0  0  0  0  0  0  0  0  0  0  0
   12.9992    9.5379   40.7236 H   0  0  0  0  0  0  0  0  0  0  0  0
   14.0221    8.2249   41.4399 H   0  0  0  0  0  0  0  0  0  0  0  0
   13.5233    9.7626   43.6479 H   0  0  0  0  0  0  0  0  0  0  0  0
   11.9950    9.9851   42.6982 H   0  0  0  0  0  0  0  0  0  0  0  0
   12.4349    4.8454   43.8443 H   0  0  0  0  0  0  0  0  0  0  0  0
   10.1350    5.9795   44.5777 H   0  0  0  0  0  0  0  0  0  0  0  0
   10.4420    8.5310   43.9940 H   0  0  0  0  0  0  0  0  0  0  0  0
   15.9938    9.0119   42.9328 H   0  0  0  0  0  0  0  0  0  0  0  0
   18.4588   14.4564   43.7424 H   0  0  0  0  0  0  0  0  0  0  0  0
   18.8104   18.0871   40.9169 H   0  0  0  0  0  0  0  0  0  0  0  0
   19.6153   17.1809   39.5912 H   0  0  0  0  0  0  0  0  0  0  0  0
   17.8296   17.3749   39.5912 H   0  0  0  0  0  0  0  0  0  0  0  0
  1  2  1  0
  2  3  2  0
  3  4  1  0
  4  5  1  0
  5  6  2  0
  6  7  1  0
  7  8  2  0
  8  9  1  0
  9 10  1  0
 10 11  1  0
 11 12  2  0
 12 13  1  0
 13 14  2  0
 14 15  1  0
  8 16  1  0
 16 17  2  0
  3 18  1  0
 18 19  2  0
 19 20  1  0
 20 21  1  0
 20  2  1  0
 17  5  1  0
 15 11  1  0
  1 22  1  0
  1 23  1  0
  1 24  1  0
  4 25  1  0
  7 26  1  0
  9 27  1  0
  9 28  1  0
 10 29  1  0
 10 30  1  0
 13 31  1  0
 14 32  1  0
 15 33  1  0
 16 34  1  0
 18 35  1  0
 21 36  1  0
 21 37  1  0
 21 38  1  0
M  END
>  <meeko>  (42) 
{"is_sidechain": false}

>  <vina_energy>  (42) 
-6.69

$$$$

     RDKit          3D

 35 37  0  0  0  0  0  0  0  0999 V2000
   18.9360   14.4690   39.3280 C   0  0  0  0  0  0  0  0  0  0  0  0
   18.6680   14.7140   40.7660 C   0  0  0  0  0  0  0  0  0  0  0  0
   18.3040   13.8690   41.7950 C   0  0  0  0  0  0  0  0  0  0  0  0
   18.1000   12.5420   41.6750 N   0  0  0  0  0  0  0  0  0  0  0  0
   16.9250   11.8020   41.5480 C   0  0  0  0  0  0  0  0  0  0  0  0
   16.7590   10.6300   42.1780 N   0  0  0  0  0  0  0  0  0  0  0  0
   15.5890    9.9850   41.9990 C   0  0  0  0  0  0  0  0  0  0  0  0
   14.5700   10.4590   41.2030 C   0  0  0  0  0  0  0  0  0  0  0  0
   13.2870    9.7210   41.0040 C   0  0  0  0  0  0  0  0  0  0  0  0
   12.9790    8.8680   42.1430 N   0  0  0  0  0  0  0  0  0  0  0  0
   13.0980    7.5080   42.2080 C   0  0  0  0  0  0  0  0  0  0  0  0
   12.6980    7.1520   43.4740 C   0  0  0  0  0  0  0  0  0  0  0  0
   12.3660    8.3680   44.0990 C   0  0  0  0  0  0  0  0  0  0  0  0
   12.5420    9.4190   43.2950 N   0  0  0  0  0  0  0  0  0  0  0  0
   14.8360   11.6660   40.5990 C   0  0  0  0  0  0  0  0  0  0  0  0
   15.9880   12.3470   40.7530 N   0  0  0  0  0  0  0  0  0  0  0  0
   18.2040   14.6980   42.9320 C   0  0  0  0  0  0  0  0  0  0  0  0
   18.4820   15.9750   42.6550 N   0  0  0  0  0  0  0  0  0  0  0  0
   18.7540   15.9610   41.3370 N   0  0  0  0  0  0  0  0  0  0  0  0
   19.1030   17.2000   40.6800 C   0  0  0  0  0  0  0  0  0  0  0  0
   19.7444   13.7300   39.2264 H   0  0  0  0  0  0  0  0  0  0  0  0
   18.0252   14.0848   38.8455 H   0  0  0  0  0  0  0  0  0  0  0  0
   19.2372   15.4106   38.8455 H   0  0  0  0  0  0  0  0  0  0  0  0
   18.8710   11.8890   41.6610 H   0  0  0  0  0  0  0  0  0  0  0  0
   15.4398    9.0265   42.5177 H   0  0  0  0  0  0  0  0  0  0  0  0
   12.4729   10.4489   40.8723 H   0  0  0  0  0  0  0  0  0  0  0  0
   13.3906    9.0833   40.1137 H   0  0  0  0  0  0  0  0  0  0  0  0
   13.4436    6.8350   41.4095 H   0  0  0  0  0  0  0  0  0  0  0  0
   12.6484    6.1405   43.9034 H   0  0  0  0  0  0  0  0  0  0  0  0
   12.0021    8.4441   45.1343 H   0  0  0  0  0  0  0  0  0  0  0  0
   14.0611   12.1014   39.9510 H   0  0  0  0  0  0  0  0  0  0  0  0
   17.9284   14.3343   43.9329 H   0  0  0  0  0  0  0  0  0  0  0  0
   19.3194   17.9682   41.4370 H   0  0  0  0  0  0  0  0  0  0  0  0
   19.9921   17.0439   40.0514 H   0  0  0  0  0  0  0  0  0  0  0  0
   18.2631   17.5310   40.0514 H   0  0  0  0  0  0  0  0  0  0  0  0
  1  2  1  0
  2  3  2  0
  3  4  1  0
  4  5  1  0
  5  6  2  0
  6  7  1  0
  7  8  2  0
  8  9  1  0
  9 10  1  0
 10 11  1  0
 11 12  2  0
 12 13  1  0
 13 14  2  0
  8 15  1  0
 15 16  2  0
  3 17  1  0
 17 18  2  0
 18 19  1  0
 19 20  1  0
 19  2  1  0
 16  5  1  0
 14 10  1  0
  1 21  1  0
  1 22  1  0
  1 23  1  0
  4 24  1  0
  7 25  1  0
  9 26  1  0
  9 27  1  0
 11 28  1  0
 12 29  1  0
 13 30  1  0
 15 31  1  0
 17 32  1  0
 20 33  1  0
 20 34  1  0
 20 35  1  0
M  END
>  <meeko>  (43) 
{"is_sidechain": false}

>  <vina_energy>  (43) 
-6.18

$$$$

     RDKit          3D

 35 37  0  0  0  0  0  0  0  0999 V2000
   18.7700   14.4220   39.2660 C   0  0  0  0  0  0  0  0  0  0  0  0
   18.5800   14.6720   40.7160 C   0  0  0  0  0  0  0  0  0  0  0  0
   18.2770   13.8310   41.7680 C   0  0  0  0  0  0  0  0  0  0  0  0
   18.0760   12.5020   41.6650 N   0  0  0  0  0  0  0  0  0  0  0  0
   16.9020   11.7570   41.5640 C   0  0  0  0  0  0  0  0  0  0  0  0
   16.7410   10.6040   42.2320 N   0  0  0  0  0  0  0  0  0  0  0  0
   15.5710    9.9530   42.0740 C   0  0  0  0  0  0  0  0  0  0  0  0
   14.5490   10.3990   41.2660 C   0  0  0  0  0  0  0  0  0  0  0  0
   13.2620    9.6530   41.1070 C   0  0  0  0  0  0  0  0  0  0  0  0
   12.9610    8.7740   42.2670 C   0  0  0  0  0  0  0  0  0  0  0  0
   13.0720    7.4160   42.4870 C   0  0  0  0  0  0  0  0  0  0  0  0
   12.6110    7.1880   43.8060 C   0  0  0  0  0  0  0  0  0  0  0  0
   12.2510    8.4180   44.3050 C   0  0  0  0  0  0  0  0  0  0  0  0
   12.4610    9.3870   43.3780 O   0  0  0  0  0  0  0  0  0  0  0  0
   14.8090   11.5900   40.6290 C   0  0  0  0  0  0  0  0  0  0  0  0
   15.9610   12.2780   40.7580 N   0  0  0  0  0  0  0  0  0  0  0  0
   18.2350   14.6640   42.9030 C   0  0  0  0  0  0  0  0  0  0  0  0
   18.4910   15.9420   42.6060 N   0  0  0  0  0  0  0  0  0  0  0  0
   18.6900   15.9220   41.2750 N   0  0  0  0  0  0  0  0  0  0  0  0
   18.9960   17.1590   40.5940 C   0  0  0  0  0  0  0  0  0  0  0  0
   19.4303   13.5532   39.1271 H   0  0  0  0  0  0  0  0  0  0  0  0
   17.7952   14.2203   38.7979 H   0  0  0  0  0  0  0  0  0  0  0  0
   19.2254   15.3072   38.7979 H   0  0  0  0  0  0  0  0  0  0  0  0
   18.8480   11.8500   41.6470 H   0  0  0  0  0  0  0  0  0  0  0  0
   15.4243    9.0108   42.6224 H   0  0  0  0  0  0  0  0  0  0  0  0
   12.4448   10.3809   40.9958 H   0  0  0  0  0  0  0  0  0  0  0  0
   13.3582    9.0103   40.2195 H   0  0  0  0  0  0  0  0  0  0  0  0
   13.4444    6.6613   41.7787 H   0  0  0  0  0  0  0  0  0  0  0  0
   12.5525    6.2211   44.3272 H   0  0  0  0  0  0  0  0  0  0  0  0
   11.8492    8.5921   45.3141 H   0  0  0  0  0  0  0  0  0  0  0  0
   14.0293   12.0065   39.9743 H   0  0  0  0  0  0  0  0  0  0  0  0
   18.0163   14.3036   43.9190 H   0  0  0  0  0  0  0  0  0  0  0  0
   19.1910   17.9474   41.3359 H   0  0  0  0  0  0  0  0  0  0  0  0
   19.8868   17.0200   39.9638 H   0  0  0  0  0  0  0  0  0  0  0  0
   18.1431   17.4513   39.9638 H   0  0  0  0  0  0  0  0  0  0  0  0
  1  2  1  0
  2  3  2  0
  3  4  1  0
  4  5  1  0
  5  6  2  0
  6  7  1  0
  7  8  2  0
  8  9  1  0
  9 10  1  0
 10 11  2  0
 11 12  1  0
 12 13  2  0
 13 14  1  0
  8 15  1  0
 15 16  2  0
  3 17  1  0
 17 18  2  0
 18 19  1  0
 19 20  1  0
 19  2  1  0
 16  5  1  0
 14 10  1  0
  1 21  1  0
  1 22  1  0
  1 23  1  0
  4 24  1  0
  7 25  1  0
  9 26  1  0
  9 27  1  0
 11 28  1  0
 12 29  1  0
 13 30  1  0
 15 31  1  0
 17 32  1  0
 20 33  1  0
 20 34  1  0
 20 35  1  0
M  END
>  <meeko>  (44) 
{"is_sidechain": false}

>  <vina_energy>  (44) 
-6.51

$$$$

     RDKit          3D

 38 40  0  0  0  0  0  0  0  0999 V2000
   18.4330   14.4590   39.0450 C   0  0  0  0  0  0  0  0  0  0  0  0
   18.4670   14.7530   40.4990 C   0  0  0  0  0  0  0  0  0  0  0  0
   18.3650   13.9400   41.6100 C   0  0  0  0  0  0  0  0  0  0  0  0
   18.2010   12.6030   41.5800 N   0  0  0  0  0  0  0  0  0  0  0  0
   17.0470   11.8190   41.5520 C   0  0  0  0  0  0  0  0  0  0  0  0
   17.0760   10.7320   42.3410 N   0  0  0  0  0  0  0  0  0  0  0  0
   15.9820    9.9460   42.3500 C   0  0  0  0  0  0  0  0  0  0  0  0
   14.8530   10.1960   41.6030 C   0  0  0  0  0  0  0  0  0  0  0  0
   13.6600    9.2930   41.6090 C   0  0  0  0  0  0  0  0  0  0  0  0
   12.8660    9.4040   42.9130 C   0  0  0  0  0  0  0  0  0  0  0  0
   12.3360    8.0840   43.3340 C   0  0  0  0  0  0  0  0  0  0  0  0
   12.8410    6.8020   43.2990 C   0  0  0  0  0  0  0  0  0  0  0  0
   11.8420    5.9660   43.8550 C   0  0  0  0  0  0  0  0  0  0  0  0
   10.7950    6.7910   44.1890 C   0  0  0  0  0  0  0  0  0  0  0  0
   11.0860    8.0790   43.8760 O   0  0  0  0  0  0  0  0  0  0  0  0
   14.9230   11.3290   40.8250 C   0  0  0  0  0  0  0  0  0  0  0  0
   15.9950   12.1440   40.7850 N   0  0  0  0  0  0  0  0  0  0  0  0
   18.4680   14.8120   42.7120 C   0  0  0  0  0  0  0  0  0  0  0  0
   18.6260   16.0860   42.3410 N   0  0  0  0  0  0  0  0  0  0  0  0
   18.6310   16.0240   40.9970 N   0  0  0  0  0  0  0  0  0  0  0  0
   18.7900   17.2440   40.2390 C   0  0  0  0  0  0  0  0  0  0  0  0
   18.3079   13.3768   38.8926 H   0  0  0  0  0  0  0  0  0  0  0  0
   17.5908   14.9943   38.5823 H   0  0  0  0  0  0  0  0  0  0  0  0
   19.3752   14.7879   38.5823 H   0  0  0  0  0  0  0  0  0  0  0  0
   18.9920   11.9730   41.5800 H   0  0  0  0  0  0  0  0  0  0  0  0
   15.9913    9.0525   42.9915 H   0  0  0  0  0  0  0  0  0  0  0  0
   13.0039    9.5651   40.7690 H   0  0  0  0  0  0  0  0  0  0  0  0
   14.0166    8.2567   41.5145 H   0  0  0  0  0  0  0  0  0  0  0  0
   13.5256    9.7938   43.7023 H   0  0  0  0  0  0  0  0  0  0  0  0
   12.0165   10.0826   42.7461 H   0  0  0  0  0  0  0  0  0  0  0  0
   13.8238    6.4903   42.9157 H   0  0  0  0  0  0  0  0  0  0  0  0
   11.8938    4.8758   43.9919 H   0  0  0  0  0  0  0  0  0  0  0  0
    9.8528    6.4544   44.6461 H   0  0  0  0  0  0  0  0  0  0  0  0
   14.0542   11.5837   40.2002 H   0  0  0  0  0  0  0  0  0  0  0  0
   18.4234   14.4811   43.7601 H   0  0  0  0  0  0  0  0  0  0  0  0
   18.9006   18.0930   40.9296 H   0  0  0  0  0  0  0  0  0  0  0  0
   19.6858   17.1678   39.6052 H   0  0  0  0  0  0  0  0  0  0  0  0
   17.9046   17.3999   39.6052 H   0  0  0  0  0  0  0  0  0  0  0  0
  1  2  1  0
  2  3  2  0
  3  4  1  0
  4  5  1  0
  5  6  2  0
  6  7  1  0
  7  8  2  0
  8  9  1  0
  9 10  1  0
 10 11  1  0
 11 12  2  0
 12 13  1  0
 13 14  2  0
 14 15  1  0
  8 16  1  0
 16 17  2  0
  3 18  1  0
 18 19  2  0
 19 20  1  0
 20 21  1  0
 20  2  1  0
 17  5  1  0
 15 11  1  0
  1 22  1  0
  1 23  1  0
  1 24  1  0
  4 25  1  0
  7 26  1  0
  9 27  1  0
  9 28  1  0
 10 29  1  0
 10 30  1  0
 12 31  1  0
 13 32  1  0
 14 33  1  0
 16 34  1  0
 18 35  1  0
 21 36  1  0
 21 37  1  0
 21 38  1  0
M  END
>  <meeko>  (45) 
{"is_sidechain": false}

>  <vina_energy>  (45) 
-6.72

$$$$

     RDKit          3D

 36 38  0  0  0  0  0  0  0  0999 V2000
   18.2550   14.4570   39.0320 C   0  0  0  0  0  0  0  0  0  0  0  0
   18.4020   14.7460   40.4790 C   0  0  0  0  0  0  0  0  0  0  0  0
   18.3750   13.9310   41.5920 C   0  0  0  0  0  0  0  0  0  0  0  0
   18.1920   12.5960   41.5730 N   0  0  0  0  0  0  0  0  0  0  0  0
   17.0280   11.8280   41.5570 C   0  0  0  0  0  0  0  0  0  0  0  0
   17.0560   10.7300   42.3310 N   0  0  0  0  0  0  0  0  0  0  0  0
   15.9510    9.9560   42.3450 C   0  0  0  0  0  0  0  0  0  0  0  0
   14.8120   10.2290   41.6220 C   0  0  0  0  0  0  0  0  0  0  0  0
   13.5940    9.3650   41.6760 C   0  0  0  0  0  0  0  0  0  0  0  0
   13.7810    8.3050   42.6480 N   0  0  0  0  0  0  0  0  0  0  0  0
   12.7340    7.8380   43.3710 C   0  0  0  0  0  0  0  0  0  0  0  0
   11.9390    8.6640   44.0130 N   0  0  0  0  0  0  0  0  0  0  0  0
   10.9380    7.9680   44.6600 C   0  0  0  0  0  0  0  0  0  0  0  0
   10.9730    6.6020   44.5070 C   0  0  0  0  0  0  0  0  0  0  0  0
   12.3020    6.1720   43.5180 S   0  0  0  0  0  0  0  0  0  0  0  0
   14.8820   11.3760   40.8650 C   0  0  0  0  0  0  0  0  0  0  0  0
   15.9640   12.1790   40.8180 N   0  0  0  0  0  0  0  0  0  0  0  0
   18.5780   14.7980   42.6860 C   0  0  0  0  0  0  0  0  0  0  0  0
   18.7220   16.0700   42.3060 N   0  0  0  0  0  0  0  0  0  0  0  0
   18.6060   16.0150   40.9670 N   0  0  0  0  0  0  0  0  0  0  0  0
   18.7100   17.2370   40.2030 C   0  0  0  0  0  0  0  0  0  0  0  0
   17.7598   13.4835   38.9010 H   0  0  0  0  0  0  0  0  0  0  0  0
   17.6475   15.2437   38.5608 H   0  0  0  0  0  0  0  0  0  0  0  0
   19.2486   14.4294   38.5608 H   0  0  0  0  0  0  0  0  0  0  0  0
   18.9740   11.9550   41.5640 H   0  0  0  0  0  0  0  0  0  0  0  0
   15.9609    9.0523   42.9720 H   0  0  0  0  0  0  0  0  0  0  0  0
   12.7264    9.9760   41.9656 H   0  0  0  0  0  0  0  0  0  0  0  0
   13.4225    8.9201   40.6847 H   0  0  0  0  0  0  0  0  0  0  0  0
   14.3710    7.5450   42.3190 H   0  0  0  0  0  0  0  0  0  0  0  0
   10.1644    8.4721   45.2578 H   0  0  0  0  0  0  0  0  0  0  0  0
   10.2573    5.8948   44.9516 H   0  0  0  0  0  0  0  0  0  0  0  0
   14.0041   11.6539   40.2632 H   0  0  0  0  0  0  0  0  0  0  0  0
   18.6136   14.4641   43.7335 H   0  0  0  0  0  0  0  0  0  0  0  0
   18.7829   18.0935   40.8894 H   0  0  0  0  0  0  0  0  0  0  0  0
   19.6081   17.1977   39.5690 H   0  0  0  0  0  0  0  0  0  0  0  0
   17.8182   17.3501   39.5690 H   0  0  0  0  0  0  0  0  0  0  0  0
  1  2  1  0
  2  3  2  0
  3  4  1  0
  4  5  1  0
  5  6  2  0
  6  7  1  0
  7  8  2  0
  8  9  1  0
  9 10  1  0
 10 11  1  0
 11 12  2  0
 12 13  1  0
 13 14  2  0
 14 15  1  0
  8 16  1  0
 16 17  2  0
  3 18  1  0
 18 19  2  0
 19 20  1  0
 20 21  1  0
 20  2  1  0
 17  5  1  0
 15 11  1  0
  1 22  1  0
  1 23  1  0
  1 24  1  0
  4 25  1  0
  7 26  1  0
  9 27  1  0
  9 28  1  0
 10 29  1  0
 13 30  1  0
 14 31  1  0
 16 32  1  0
 18 33  1  0
 21 34  1  0
 21 35  1  0
 21 36  1  0
M  END
>  <meeko>  (46) 
{"is_sidechain": false}

>  <vina_energy>  (46) 
-6.64

$$$$

     RDKit          3D

 36 38  0  0  0  0  0  0  0  0999 V2000
   15.0890   13.3840   39.3800 C   0  0  0  0  0  0  0  0  0  0  0  0
   15.8690   12.5470   40.3230 C   0  0  0  0  0  0  0  0  0  0  0  0
   15.6000   11.3310   40.9200 C   0  0  0  0  0  0  0  0  0  0  0  0
   14.4760   10.6120   40.7440 N   0  0  0  0  0  0  0  0  0  0  0  0
   13.9560    9.5300   41.4550 C   0  0  0  0  0  0  0  0  0  0  0  0
   13.1450    8.7210   40.7550 N   0  0  0  0  0  0  0  0  0  0  0  0
   12.6160    7.6640   41.4030 C   0  0  0  0  0  0  0  0  0  0  0  0
   12.8580    7.3730   42.7270 C   0  0  0  0  0  0  0  0  0  0  0  0
   12.2750    6.1830   43.4270 C   0  0  0  0  0  0  0  0  0  0  0  0
   11.1310    6.5000   44.3410 C   0  0  0  0  0  0  0  0  0  0  0  0
   10.3580    5.5230   44.9400 C   0  0  0  0  0  0  0  0  0  0  0  0
    9.3200    5.7840   45.7570 N   0  0  0  0  0  0  0  0  0  0  0  0
    9.0580    7.0810   45.9710 C   0  0  0  0  0  0  0  0  0  0  0  0
    9.7300    8.1170   45.4450 N   0  0  0  0  0  0  0  0  0  0  0  0
   10.7560    7.7970   44.6350 C   0  0  0  0  0  0  0  0  0  0  0  0
   13.7090    8.2580   43.3520 C   0  0  0  0  0  0  0  0  0  0  0  0
   14.2580    9.3260   42.7470 N   0  0  0  0  0  0  0  0  0  0  0  0
   16.7340   11.0540   41.7100 C   0  0  0  0  0  0  0  0  0  0  0  0
   17.6590   12.0150   41.6300 N   0  0  0  0  0  0  0  0  0  0  0  0
   17.1100   12.9110   40.7900 N   0  0  0  0  0  0  0  0  0  0  0  0
   17.8460   14.1110   40.4660 C   0  0  0  0  0  0  0  0  0  0  0  0
   14.4464   14.0736   39.9471 H   0  0  0  0  0  0  0  0  0  0  0  0
   15.7780   13.9620   38.7466 H   0  0  0  0  0  0  0  0  0  0  0  0
   14.4639   12.7374   38.7466 H   0  0  0  0  0  0  0  0  0  0  0  0
   13.8260   10.8210   39.9970 H   0  0  0  0  0  0  0  0  0  0  0  0
   11.9505    6.9931   40.8399 H   0  0  0  0  0  0  0  0  0  0  0  0
   11.9193    5.4753   42.6637 H   0  0  0  0  0  0  0  0  0  0  0  0
   13.0746    5.7680   44.0582 H   0  0  0  0  0  0  0  0  0  0  0  0
   10.6054    4.4705   44.7373 H   0  0  0  0  0  0  0  0  0  0  0  0
    8.2160    7.3178   46.6381 H   0  0  0  0  0  0  0  0  0  0  0  0
   11.3305    8.6171   44.1797 H   0  0  0  0  0  0  0  0  0  0  0  0
   13.9541    8.0802   44.4095 H   0  0  0  0  0  0  0  0  0  0  0  0
   16.8451   10.1480   42.3238 H   0  0  0  0  0  0  0  0  0  0  0  0
   18.1544   14.6139   41.3944 H   0  0  0  0  0  0  0  0  0  0  0  0
   18.7376   13.8469   39.8784 H   0  0  0  0  0  0  0  0  0  0  0  0
   17.2064   14.7860   39.8784 H   0  0  0  0  0  0  0  0  0  0  0  0
  1  2  1  0
  2  3  2  0
  3  4  1  0
  4  5  1  0
  5  6  2  0
  6  7  1  0
  7  8  2  0
  8  9  1  0
  9 10  1  0
 10 11  2  0
 11 12  1  0
 12 13  2  0
 13 14  1  0
 14 15  2  0
  8 16  1  0
 16 17  2  0
  3 18  1  0
 18 19  2  0
 19 20  1  0
 20 21  1  0
 20  2  1  0
 17  5  1  0
 15 10  1  0
  1 22  1  0
  1 23  1  0
  1 24  1  0
  4 25  1  0
  7 26  1  0
  9 27  1  0
  9 28  1  0
 11 29  1  0
 13 30  1  0
 15 31  1  0
 16 32  1  0
 18 33  1  0
 21 34  1  0
 21 35  1  0
 21 36  1  0
M  END
>  <meeko>  (47) 
{"is_sidechain": false}

>  <vina_energy>  (47) 
-7.08

$$$$

     RDKit          3D

 35 37  0  0  0  0  0  0  0  0999 V2000
   14.9630   13.0890   39.6620 C   0  0  0  0  0  0  0  0  0  0  0  0
   15.7150   12.1920   40.5730 C   0  0  0  0  0  0  0  0  0  0  0  0
   15.4180   10.9540   41.1050 C   0  0  0  0  0  0  0  0  0  0  0  0
   14.2860   10.2600   40.8720 N   0  0  0  0  0  0  0  0  0  0  0  0
   13.7110    9.1870   41.5510 C   0  0  0  0  0  0  0  0  0  0  0  0
   13.9270    9.1650   42.8760 N   0  0  0  0  0  0  0  0  0  0  0  0
   13.3950    8.1410   43.5740 C   0  0  0  0  0  0  0  0  0  0  0  0
   12.6530    7.1290   43.0050 C   0  0  0  0  0  0  0  0  0  0  0  0
   12.0790    5.9960   43.7980 C   0  0  0  0  0  0  0  0  0  0  0  0
   10.8890    6.3800   44.6060 C   0  0  0  0  0  0  0  0  0  0  0  0
    9.7710    5.6670   44.9830 C   0  0  0  0  0  0  0  0  0  0  0  0
    8.9290    6.4390   45.7380 N   0  0  0  0  0  0  0  0  0  0  0  0
    9.5160    7.6090   45.8300 C   0  0  0  0  0  0  0  0  0  0  0  0
   10.7100    7.6230   45.1670 N   0  0  0  0  0  0  0  0  0  0  0  0
   12.4800    7.2470   41.6450 C   0  0  0  0  0  0  0  0  0  0  0  0
   12.9980    8.2480   40.9080 N   0  0  0  0  0  0  0  0  0  0  0  0
   16.5320   10.6210   41.9020 C   0  0  0  0  0  0  0  0  0  0  0  0
   17.4720   11.5700   41.8860 N   0  0  0  0  0  0  0  0  0  0  0  0
   16.9580   12.5090   41.0690 N   0  0  0  0  0  0  0  0  0  0  0  0
   17.7220   13.7070   40.8100 C   0  0  0  0  0  0  0  0  0  0  0  0
   14.3679   13.7989   40.2552 H   0  0  0  0  0  0  0  0  0  0  0  0
   15.6700   13.6437   39.0276 H   0  0  0  0  0  0  0  0  0  0  0  0
   14.2934   12.4897   39.0276 H   0  0  0  0  0  0  0  0  0  0  0  0
   13.6830   10.4800   40.0910 H   0  0  0  0  0  0  0  0  0  0  0  0
   13.5632    8.1120   44.6607 H   0  0  0  0  0  0  0  0  0  0  0  0
   11.7839    5.1976   43.1012 H   0  0  0  0  0  0  0  0  0  0  0  0
   12.8568    5.6677   44.5031 H   0  0  0  0  0  0  0  0  0  0  0  0
    9.5807    4.6177   44.7133 H   0  0  0  0  0  0  0  0  0  0  0  0
    9.0989    8.4701   46.3728 H   0  0  0  0  0  0  0  0  0  0  0  0
   11.3310    8.4180   45.0910 H   0  0  0  0  0  0  0  0  0  0  0  0
   11.8840    6.4792   41.1300 H   0  0  0  0  0  0  0  0  0  0  0  0
   16.6176    9.6847   42.4730 H   0  0  0  0  0  0  0  0  0  0  0  0
   18.0160   14.1679   41.7645 H   0  0  0  0  0  0  0  0  0  0  0  0
   18.6232   13.4498   40.2341 H   0  0  0  0  0  0  0  0  0  0  0  0
   17.1087   14.4157   40.2341 H   0  0  0  0  0  0  0  0  0  0  0  0
  1  2  1  0
  2  3  2  0
  3  4  1  0
  4  5  1  0
  5  6  2  0
  6  7  1  0
  7  8  2  0
  8  9  1  0
  9 10  1  0
 10 11  2  0
 11 12  1  0
 12 13  2  0
 13 14  1  0
  8 15  1  0
 15 16  2  0
  3 17  1  0
 17 18  2  0
 18 19  1  0
 19 20  1  0
 19  2  1  0
 16  5  1  0
 14 10  1  0
  1 21  1  0
  1 22  1  0
  1 23  1  0
  4 24  1  0
  7 25  1  0
  9 26  1  0
  9 27  1  0
 11 28  1  0
 13 29  1  0
 14 30  1  0
 15 31  1  0
 17 32  1  0
 20 33  1  0
 20 34  1  0
 20 35  1  0
M  END
>  <meeko>  (48) 
{"is_sidechain": false}

>  <vina_energy>  (48) 
-7.03

$$$$

     RDKit          3D

 38 40  0  0  0  0  0  0  0  0999 V2000
   18.2330   14.4200   38.9780 C   0  0  0  0  0  0  0  0  0  0  0  0
   18.3480   14.7200   40.4280 C   0  0  0  0  0  0  0  0  0  0  0  0
   18.3080   13.9080   41.5430 C   0  0  0  0  0  0  0  0  0  0  0  0
   18.1340   12.5710   41.5210 N   0  0  0  0  0  0  0  0  0  0  0  0
   16.9750   11.7950   41.5600 C   0  0  0  0  0  0  0  0  0  0  0  0
   17.0490   10.6960   42.3300 N   0  0  0  0  0  0  0  0  0  0  0  0
   15.9530    9.9150   42.3990 C   0  0  0  0  0  0  0  0  0  0  0  0
   14.7790   10.1810   41.7300 C   0  0  0  0  0  0  0  0  0  0  0  0
   13.5660    9.3130   41.8480 C   0  0  0  0  0  0  0  0  0  0  0  0
   13.8170    8.1060   42.7600 C   0  0  0  0  0  0  0  0  0  0  0  0
   12.5720    7.6720   43.4480 C   0  0  0  0  0  0  0  0  0  0  0  0
   11.9560    6.4420   43.5500 C   0  0  0  0  0  0  0  0  0  0  0  0
   10.8090    6.5300   44.2950 N   0  0  0  0  0  0  0  0  0  0  0  0
   10.7250    7.7880   44.6570 C   0  0  0  0  0  0  0  0  0  0  0  0
   11.7690    8.5210   44.1700 N   0  0  0  0  0  0  0  0  0  0  0  0
   14.8030   11.3280   40.9700 C   0  0  0  0  0  0  0  0  0  0  0  0
   15.8730   12.1400   40.8720 N   0  0  0  0  0  0  0  0  0  0  0  0
   18.4810   14.7780   42.6380 C   0  0  0  0  0  0  0  0  0  0  0  0
   18.6190   16.0520   42.2590 N   0  0  0  0  0  0  0  0  0  0  0  0
   18.5240   15.9930   40.9160 N   0  0  0  0  0  0  0  0  0  0  0  0
   18.6240   17.2190   40.1590 C   0  0  0  0  0  0  0  0  0  0  0  0
   17.8422   13.4005   38.8444 H   0  0  0  0  0  0  0  0  0  0  0  0
   17.5472   15.1401   38.5078 H   0  0  0  0  0  0  0  0  0  0  0  0
   19.2245   14.4972   38.5078 H   0  0  0  0  0  0  0  0  0  0  0  0
   18.9180   11.9360   41.4540 H   0  0  0  0  0  0  0  0  0  0  0  0
   15.9987    9.0125   43.0262 H   0  0  0  0  0  0  0  0  0  0  0  0
   12.7407    9.9089   42.2649 H   0  0  0  0  0  0  0  0  0  0  0  0
   13.3148    8.9377   40.8450 H   0  0  0  0  0  0  0  0  0  0  0  0
   14.1982    7.2723   42.1521 H   0  0  0  0  0  0  0  0  0  0  0  0
   14.5493    8.4000   43.5264 H   0  0  0  0  0  0  0  0  0  0  0  0
   12.3345    5.5150   43.0946 H   0  0  0  0  0  0  0  0  0  0  0  0
    9.9146    8.2009   45.2757 H   0  0  0  0  0  0  0  0  0  0  0  0
   11.9170    9.5090   44.3260 H   0  0  0  0  0  0  0  0  0  0  0  0
   13.8954   11.5973   40.4099 H   0  0  0  0  0  0  0  0  0  0  0  0
   18.5003   14.4459   43.6865 H   0  0  0  0  0  0  0  0  0  0  0  0
   18.6936   18.0720   40.8501 H   0  0  0  0  0  0  0  0  0  0  0  0
   19.5225   17.1863   39.5252 H   0  0  0  0  0  0  0  0  0  0  0  0
   17.7321   17.3324   39.5252 H   0  0  0  0  0  0  0  0  0  0  0  0
  1  2  1  0
  2  3  2  0
  3  4  1  0
  4  5  1  0
  5  6  2  0
  6  7  1  0
  7  8  2  0
  8  9  1  0
  9 10  1  0
 10 11  1  0
 11 12  2  0
 12 13  1  0
 13 14  2  0
 14 15  1  0
  8 16  1  0
 16 17  2  0
  3 18  1  0
 18 19  2  0
 19 20  1  0
 20 21  1  0
 20  2  1  0
 17  5  1  0
 15 11  1  0
  1 22  1  0
  1 23  1  0
  1 24  1  0
  4 25  1  0
  7 26  1  0
  9 27  1  0
  9 28  1  0
 10 29  1  0
 10 30  1  0
 12 31  1  0
 14 32  1  0
 15 33  1  0
 16 34  1  0
 18 35  1  0
 21 36  1  0
 21 37  1  0
 21 38  1  0
M  END
>  <meeko>  (49) 
{"is_sidechain": false}

>  <vina_energy>  (49) 
-6.55

$$$$

     RDKit          3D

 34 36  0  0  0  0  0  0  0  0999 V2000
   14.9860   13.2970   39.4000 C   0  0  0  0  0  0  0  0  0  0  0  0
   15.7560   12.4690   40.3590 C   0  0  0  0  0  0  0  0  0  0  0  0
   15.4630   11.2810   41.0010 C   0  0  0  0  0  0  0  0  0  0  0  0
   14.3180   10.5870   40.8610 N   0  0  0  0  0  0  0  0  0  0  0  0
   13.8270    9.4800   41.5530 C   0  0  0  0  0  0  0  0  0  0  0  0
   13.1840    8.5700   40.8000 N   0  0  0  0  0  0  0  0  0  0  0  0
   12.6940    7.4830   41.4260 C   0  0  0  0  0  0  0  0  0  0  0  0
   12.8120    7.2570   42.7790 C   0  0  0  0  0  0  0  0  0  0  0  0
   12.2660    6.0380   43.4440 C   0  0  0  0  0  0  0  0  0  0  0  0
   11.0560    6.3300   44.1890 N   0  0  0  0  0  0  0  0  0  0  0  0
   10.1640    7.3330   43.9710 C   0  0  0  0  0  0  0  0  0  0  0  0
    9.1830    7.2420   44.8380 N   0  0  0  0  0  0  0  0  0  0  0  0
    9.5290    6.1470   45.5800 C   0  0  0  0  0  0  0  0  0  0  0  0
   10.6650    5.5490   45.2140 N   0  0  0  0  0  0  0  0  0  0  0  0
   13.4840    8.2450   43.4630 C   0  0  0  0  0  0  0  0  0  0  0  0
   13.9940    9.3450   42.8760 N   0  0  0  0  0  0  0  0  0  0  0  0
   16.5980   11.0020   41.7890 C   0  0  0  0  0  0  0  0  0  0  0  0
   17.5480   11.9330   41.6610 N   0  0  0  0  0  0  0  0  0  0  0  0
   17.0170   12.8080   40.7900 N   0  0  0  0  0  0  0  0  0  0  0  0
   17.7830   13.9730   40.4100 C   0  0  0  0  0  0  0  0  0  0  0  0
   14.3388   13.9930   39.9538 H   0  0  0  0  0  0  0  0  0  0  0  0
   15.6817   13.8678   38.7674 H   0  0  0  0  0  0  0  0  0  0  0  0
   14.3663   12.6445   38.7674 H   0  0  0  0  0  0  0  0  0  0  0  0
   13.6330   10.8350   40.1610 H   0  0  0  0  0  0  0  0  0  0  0  0
   12.1680    6.7306   40.8201 H   0  0  0  0  0  0  0  0  0  0  0  0
   12.0385    5.2844   42.6757 H   0  0  0  0  0  0  0  0  0  0  0  0
   13.0221    5.6648   44.1504 H   0  0  0  0  0  0  0  0  0  0  0  0
   10.2512    8.1017   43.1890 H   0  0  0  0  0  0  0  0  0  0  0  0
    8.9155    5.7849   46.4182 H   0  0  0  0  0  0  0  0  0  0  0  0
   13.6116    8.1297   44.5495 H   0  0  0  0  0  0  0  0  0  0  0  0
   16.6912   10.1176   42.4364 H   0  0  0  0  0  0  0  0  0  0  0  0
   18.1272   14.4965   41.3142 H   0  0  0  0  0  0  0  0  0  0  0  0
   18.6529   13.6612   39.8133 H   0  0  0  0  0  0  0  0  0  0  0  0
   17.1520   14.6481   39.8133 H   0  0  0  0  0  0  0  0  0  0  0  0
  1  2  1  0
  2  3  2  0
  3  4  1  0
  4  5  1  0
  5  6  2  0
  6  7  1  0
  7  8  2  0
  8  9  1  0
  9 10  1  0
 10 11  1  0
 11 12  2  0
 12 13  1  0
 13 14  2  0
  8 15  1  0
 15 16  2  0
  3 17  1  0
 17 18  2  0
 18 19  1  0
 19 20  1  0
 19  2  1  0
 16  5  1  0
 14 10  1  0
  1 21  1  0
  1 22  1  0
  1 23  1  0
  4 24  1  0
  7 25  1  0
  9 26  1  0
  9 27  1  0
 11 28  1  0
 13 29  1  0
 15 30  1  0
 17 31  1  0
 20 32  1  0
 20 33  1  0
 20 34  1  0
M  END
>  <meeko>  (50) 
{"is_sidechain": false}

>  <vina_energy>  (50) 
-6.73

$$$$

     RDKit          3D

 37 39  0  0  0  0  0  0  0  0999 V2000
   18.3510   14.4230   38.9400 C   0  0  0  0  0  0  0  0  0  0  0  0
   18.4320   14.7130   40.3930 C   0  0  0  0  0  0  0  0  0  0  0  0
   18.3460   13.8990   41.5040 C   0  0  0  0  0  0  0  0  0  0  0  0
   18.1540   12.5650   41.4760 N   0  0  0  0  0  0  0  0  0  0  0  0
   16.9850   11.8050   41.5320 C   0  0  0  0  0  0  0  0  0  0  0  0
   17.0630   10.6910   42.2820 N   0  0  0  0  0  0  0  0  0  0  0  0
   15.9550    9.9300   42.3680 C   0  0  0  0  0  0  0  0  0  0  0  0
   14.7640   10.2270   41.7450 C   0  0  0  0  0  0  0  0  0  0  0  0
   13.5480    9.3600   41.8690 C   0  0  0  0  0  0  0  0  0  0  0  0
   13.7540    8.1110   42.7270 C   0  0  0  0  0  0  0  0  0  0  0  0
   12.5590    7.7030   43.4300 N   0  0  0  0  0  0  0  0  0  0  0  0
   12.0080    6.4620   43.4890 C   0  0  0  0  0  0  0  0  0  0  0  0
   10.9320    6.4960   44.2410 N   0  0  0  0  0  0  0  0  0  0  0  0
   10.8600    7.8080   44.6130 C   0  0  0  0  0  0  0  0  0  0  0  0
   11.8360    8.5860   44.1360 N   0  0  0  0  0  0  0  0  0  0  0  0
   14.7910   11.3800   40.9930 C   0  0  0  0  0  0  0  0  0  0  0  0
   15.8710   12.1780   40.8840 N   0  0  0  0  0  0  0  0  0  0  0  0
   18.5020   14.7640   42.6060 C   0  0  0  0  0  0  0  0  0  0  0  0
   18.6760   16.0370   42.2320 N   0  0  0  0  0  0  0  0  0  0  0  0
   18.6200   15.9810   40.8890 N   0  0  0  0  0  0  0  0  0  0  0  0
   18.7670   17.2010   40.1300 C   0  0  0  0  0  0  0  0  0  0  0  0
   18.0578   13.3733   38.7914 H   0  0  0  0  0  0  0  0  0  0  0  0
   17.6025   15.0820   38.4757 H   0  0  0  0  0  0  0  0  0  0  0  0
   19.3326   14.5988   38.4757 H   0  0  0  0  0  0  0  0  0  0  0  0
   18.9280   11.9210   41.3930 H   0  0  0  0  0  0  0  0  0  0  0  0
   16.0050    9.0135   42.9742 H   0  0  0  0  0  0  0  0  0  0  0  0
   12.7420    9.9584   42.3187 H   0  0  0  0  0  0  0  0  0  0  0  0
   13.3041    9.0104   40.8550 H   0  0  0  0  0  0  0  0  0  0  0  0
   14.0746    7.2863   42.0735 H   0  0  0  0  0  0  0  0  0  0  0  0
   14.5132    8.3550   43.4847 H   0  0  0  0  0  0  0  0  0  0  0  0
   12.4024    5.5674   42.9848 H   0  0  0  0  0  0  0  0  0  0  0  0
   10.0576    8.1958   45.2578 H   0  0  0  0  0  0  0  0  0  0  0  0
   13.8782   11.6661   40.4499 H   0  0  0  0  0  0  0  0  0  0  0  0
   18.4829   14.4305   43.6541 H   0  0  0  0  0  0  0  0  0  0  0  0
   18.8695   18.0518   40.8197 H   0  0  0  0  0  0  0  0  0  0  0  0
   19.6634   17.1327   39.4961 H   0  0  0  0  0  0  0  0  0  0  0  0
   17.8800   17.3476   39.4961 H   0  0  0  0  0  0  0  0  0  0  0  0
  1  2  1  0
  2  3  2  0
  3  4  1  0
  4  5  1  0
  5  6  2  0
  6  7  1  0
  7  8  2  0
  8  9  1  0
  9 10  1  0
 10 11  1  0
 11 12  1  0
 12 13  2  0
 13 14  1  0
 14 15  2  0
  8 16  1  0
 16 17  2  0
  3 18  1  0
 18 19  2  0
 19 20  1  0
 20 21  1  0
 20  2  1  0
 17  5  1  0
 15 11  1  0
  1 22  1  0
  1 23  1  0
  1 24  1  0
  4 25  1  0
  7 26  1  0
  9 27  1  0
  9 28  1  0
 10 29  1  0
 10 30  1  0
 12 31  1  0
 14 32  1  0
 16 33  1  0
 18 34  1  0
 21 35  1  0
 21 36  1  0
 21 37  1  0
M  END
>  <meeko>  (51) 
{"is_sidechain": false}

>  <vina_energy>  (51) 
-6.40

$$$$

     RDKit          3D

 33 35  0  0  0  0  0  0  0  0999 V2000
   14.9400   13.3340   39.5010 C   0  0  0  0  0  0  0  0  0  0  0  0
   15.7180   12.4760   40.4290 C   0  0  0  0  0  0  0  0  0  0  0  0
   15.4340   11.2650   41.0270 C   0  0  0  0  0  0  0  0  0  0  0  0
   14.2920   10.5680   40.8640 N   0  0  0  0  0  0  0  0  0  0  0  0
   13.7750    9.4790   41.5650 C   0  0  0  0  0  0  0  0  0  0  0  0
   13.9070    9.3690   42.8950 N   0  0  0  0  0  0  0  0  0  0  0  0
   13.3790    8.2840   43.4910 C   0  0  0  0  0  0  0  0  0  0  0  0
   12.7110    7.2900   42.8100 C   0  0  0  0  0  0  0  0  0  0  0  0
   12.1190    6.0980   43.4870 C   0  0  0  0  0  0  0  0  0  0  0  0
   10.9680    6.4520   44.2870 N   0  0  0  0  0  0  0  0  0  0  0  0
   10.3840    5.7550   45.2950 C   0  0  0  0  0  0  0  0  0  0  0  0
    9.3370    6.4310   45.7100 N   0  0  0  0  0  0  0  0  0  0  0  0
    9.2890    7.5660   44.9330 N   0  0  0  0  0  0  0  0  0  0  0  0
   10.2830    7.5830   44.0540 N   0  0  0  0  0  0  0  0  0  0  0  0
   12.6210    7.4940   41.4520 C   0  0  0  0  0  0  0  0  0  0  0  0
   13.1390    8.5620   40.8160 N   0  0  0  0  0  0  0  0  0  0  0  0
   16.5710   10.9640   41.8030 C   0  0  0  0  0  0  0  0  0  0  0  0
   17.5130   11.9080   41.7110 N   0  0  0  0  0  0  0  0  0  0  0  0
   16.9780   12.8080   40.8680 N   0  0  0  0  0  0  0  0  0  0  0  0
   17.7380   13.9890   40.5270 C   0  0  0  0  0  0  0  0  0  0  0  0
   14.3122   14.0264   40.0811 H   0  0  0  0  0  0  0  0  0  0  0  0
   15.6309   13.9091   38.8671 H   0  0  0  0  0  0  0  0  0  0  0  0
   14.3002   12.7025   38.8671 H   0  0  0  0  0  0  0  0  0  0  0  0
   13.6330   10.8000   40.1330 H   0  0  0  0  0  0  0  0  0  0  0  0
   13.4867    8.1855   44.5813 H   0  0  0  0  0  0  0  0  0  0  0  0
   11.8107    5.3704   42.7218 H   0  0  0  0  0  0  0  0  0  0  0  0
   12.8812    5.6701   44.1548 H   0  0  0  0  0  0  0  0  0  0  0  0
   10.7284    4.7901   45.6954 H   0  0  0  0  0  0  0  0  0  0  0  0
   12.0942    6.7392   40.8498 H   0  0  0  0  0  0  0  0  0  0  0  0
   16.6720   10.0555   42.4149 H   0  0  0  0  0  0  0  0  0  0  0  0
   18.0632   14.4944   41.4483 H   0  0  0  0  0  0  0  0  0  0  0  0
   18.6199   13.6997   39.9366 H   0  0  0  0  0  0  0  0  0  0  0  0
   17.1093   14.6718   39.9366 H   0  0  0  0  0  0  0  0  0  0  0  0
  1  2  1  0
  2  3  2  0
  3  4  1  0
  4  5  1  0
  5  6  2  0
  6  7  1  0
  7  8  2  0
  8  9  1  0
  9 10  1  0
 10 11  1  0
 11 12  2  0
 12 13  1  0
 13 14  2  0
  8 15  1  0
 15 16  2  0
  3 17  1  0
 17 18  2  0
 18 19  1  0
 19 20  1  0
 19  2  1  0
 16  5  1  0
 14 10  1  0
  1 21  1  0
  1 22  1  0
  1 23  1  0
  4 24  1  0
  7 25  1  0
  9 26  1  0
  9 27  1  0
 11 28  1  0
 15 29  1  0
 17 30  1  0
 20 31  1  0
 20 32  1  0
 20 33  1  0
M  END
>  <meeko>  (52) 
{"is_sidechain": false}

>  <vina_energy>  (52) 
-7.22

$$$$

     RDKit          3D

 34 35  0  0  0  0  0  0  0  0999 V2000
    8.7320    4.3760   44.5620 C   0  0  0  0  0  0  0  0  0  0  0  0
    9.9640    4.8750   45.3050 C   0  0  0  0  0  0  0  0  0  0  0  0
   10.0370    6.4030   45.3920 C   0  0  0  0  0  0  0  0  0  0  0  0
   11.1480    7.0030   44.5910 C   0  0  0  0  0  0  0  0  0  0  0  0
   11.4030    8.3560   44.5630 C   0  0  0  0  0  0  0  0  0  0  0  0
   12.4010    8.9200   43.8520 N   0  0  0  0  0  0  0  0  0  0  0  0
   13.1840    8.0970   43.1340 C   0  0  0  0  0  0  0  0  0  0  0  0
   14.2030    8.7260   42.4170 N   0  0  0  0  0  0  0  0  0  0  0  0
   14.1690    9.7330   41.5230 C   0  0  0  0  0  0  0  0  0  0  0  0
   13.1840   10.0590   40.5690 C   0  0  0  0  0  0  0  0  0  0  0  0
   13.5060   11.1410   39.8550 N   0  0  0  0  0  0  0  0  0  0  0  0
   14.7010   11.5040   40.3540 N   0  0  0  0  0  0  0  0  0  0  0  0
   15.3680   12.6630   39.8060 C   0  0  0  0  0  0  0  0  0  0  0  0
   15.1480   10.6930   41.3700 C   0  0  0  0  0  0  0  0  0  0  0  0
   16.4390   10.9160   42.0660 C   0  0  0  0  0  0  0  0  0  0  0  0
   13.0160    6.7670   43.0970 N   0  0  0  0  0  0  0  0  0  0  0  0
   12.0070    6.2490   43.8220 C   0  0  0  0  0  0  0  0  0  0  0  0
    7.9663    4.0659   45.2884 H   0  0  0  0  0  0  0  0  0  0  0  0
    8.3327    5.1833   43.9305 H   0  0  0  0  0  0  0  0  0  0  0  0
    9.0070    3.5184   43.9305 H   0  0  0  0  0  0  0  0  0  0  0  0
    9.9458    4.4669   46.3263 H   0  0  0  0  0  0  0  0  0  0  0  0
   10.8458    4.5366   44.7412 H   0  0  0  0  0  0  0  0  0  0  0  0
    9.0850    6.8165   45.0278 H   0  0  0  0  0  0  0  0  0  0  0  0
   10.2310    6.6540   46.4453 H   0  0  0  0  0  0  0  0  0  0  0  0
   10.7537    9.0167   45.1562 H   0  0  0  0  0  0  0  0  0  0  0  0
   15.0710    8.2780   42.6780 H   0  0  0  0  0  0  0  0  0  0  0  0
   12.2550    9.4870   40.4283 H   0  0  0  0  0  0  0  0  0  0  0  0
   15.7334   13.2979   40.6266 H   0  0  0  0  0  0  0  0  0  0  0  0
   16.2176   12.3387   39.1871 H   0  0  0  0  0  0  0  0  0  0  0  0
   14.6607   13.2346   39.1871 H   0  0  0  0  0  0  0  0  0  0  0  0
   16.2786   10.8883   43.1539 H   0  0  0  0  0  0  0  0  0  0  0  0
   17.1507   10.1275   41.7801 H   0  0  0  0  0  0  0  0  0  0  0  0
   16.8449   11.8976   41.7801 H   0  0  0  0  0  0  0  0  0  0  0  0
   11.8597    5.1592   43.7990 H   0  0  0  0  0  0  0  0  0  0  0  0
  1  2  1  0
  2  3  1  0
  3  4  1  0
  4  5  2  0
  5  6  1  0
  6  7  2  0
  7  8  1  0
  8  9  1  0
  9 10  1  0
 10 11  2  0
 11 12  1  0
 12 13  1  0
 12 14  1  0
 14 15  1  0
  7 16  1  0
 16 17  2  0
 17  4  1  0
 14  9  2  0
  1 18  1  0
  1 19  1  0
  1 20  1  0
  2 21  1  0
  2 22  1  0
  3 23  1  0
  3 24  1  0
  5 25  1  0
  8 26  1  0
 10 27  1  0
 13 28  1  0
 13 29  1  0
 13 30  1  0
 15 31  1  0
 15 32  1  0
 15 33  1  0
 17 34  1  0
M  END
>  <meeko>  (53) 
{"is_sidechain": false}

>  <vina_energy>  (53) 
-6.78

$$$$

     RDKit          3D

 38 40  0  0  0  0  0  0  0  0999 V2000
   12.3470    5.8990   43.8100 C   0  0  0  0  0  0  0  0  0  0  0  0
   12.5550    7.2590   43.2670 C   0  0  0  0  0  0  0  0  0  0  0  0
   12.3800    8.4900   43.9380 C   0  0  0  0  0  0  0  0  0  0  0  0
   12.6500    9.5430   43.1610 N   0  0  0  0  0  0  0  0  0  0  0  0
   12.9880    8.9880   41.9820 N   0  0  0  0  0  0  0  0  0  0  0  0
   13.3520    9.8400   40.8590 C   0  0  0  0  0  0  0  0  0  0  0  0
   14.6300   10.5710   41.1160 C   0  0  0  0  0  0  0  0  0  0  0  0
   14.9260   11.7800   40.5290 C   0  0  0  0  0  0  0  0  0  0  0  0
   16.0740   12.4540   40.7340 N   0  0  0  0  0  0  0  0  0  0  0  0
   16.9740   11.9000   41.5650 C   0  0  0  0  0  0  0  0  0  0  0  0
   18.1480   12.6330   41.7460 N   0  0  0  0  0  0  0  0  0  0  0  0
   18.3570   13.9590   41.8520 C   0  0  0  0  0  0  0  0  0  0  0  0
   18.2690   14.7990   42.9810 C   0  0  0  0  0  0  0  0  0  0  0  0
   18.5540   16.0730   42.6900 N   0  0  0  0  0  0  0  0  0  0  0  0
   18.8260   16.0430   41.3730 N   0  0  0  0  0  0  0  0  0  0  0  0
   19.1830   17.2720   40.7030 C   0  0  0  0  0  0  0  0  0  0  0  0
   18.7160   14.7930   40.8110 C   0  0  0  0  0  0  0  0  0  0  0  0
   18.9660   14.5350   39.3720 C   0  0  0  0  0  0  0  0  0  0  0  0
   16.7770   10.7260   42.1820 N   0  0  0  0  0  0  0  0  0  0  0  0
   15.6130   10.0870   41.9490 C   0  0  0  0  0  0  0  0  0  0  0  0
   12.9550    7.6230   41.9980 C   0  0  0  0  0  0  0  0  0  0  0  0
   12.3530    5.9382   44.9093 H   0  0  0  0  0  0  0  0  0  0  0  0
   11.3788    5.5095   43.4623 H   0  0  0  0  0  0  0  0  0  0  0  0
   13.1545    5.2379   43.4623 H   0  0  0  0  0  0  0  0  0  0  0  0
   12.0566    8.5726   44.9861 H   0  0  0  0  0  0  0  0  0  0  0  0
   13.4719    9.2158   39.9612 H   0  0  0  0  0  0  0  0  0  0  0  0
   12.5530   10.5825   40.7167 H   0  0  0  0  0  0  0  0  0  0  0  0
   14.1805   12.2224   39.8519 H   0  0  0  0  0  0  0  0  0  0  0  0
   18.9110   11.9720   41.7930 H   0  0  0  0  0  0  0  0  0  0  0  0
   17.9969   14.4466   43.9869 H   0  0  0  0  0  0  0  0  0  0  0  0
   19.4078   18.0459   41.4517 H   0  0  0  0  0  0  0  0  0  0  0  0
   20.0690   17.1025   40.0735 H   0  0  0  0  0  0  0  0  0  0  0  0
   18.3440   17.6035   40.0735 H   0  0  0  0  0  0  0  0  0  0  0  0
   19.7280   13.7486   39.2675 H   0  0  0  0  0  0  0  0  0  0  0  0
   18.0327   14.2075   38.8906 H   0  0  0  0  0  0  0  0  0  0  0  0
   19.3227   15.4575   38.8906 H   0  0  0  0  0  0  0  0  0  0  0  0
   15.4391    9.1248   42.4529 H   0  0  0  0  0  0  0  0  0  0  0  0
   13.1989    6.9478   41.1646 H   0  0  0  0  0  0  0  0  0  0  0  0
  1  2  1  0
  2  3  1  0
  3  4  2  0
  4  5  1  0
  5  6  1  0
  6  7  1  0
  7  8  2  0
  8  9  1  0
  9 10  2  0
 10 11  1  0
 11 12  1  0
 12 13  1  0
 13 14  2  0
 14 15  1  0
 15 16  1  0
 15 17  1  0
 17 18  1  0
 10 19  1  0
 19 20  2  0
  5 21  1  0
 21  2  2  0
 20  7  1  0
 17 12  2  0
  1 22  1  0
  1 23  1  0
  1 24  1  0
  3 25  1  0
  6 26  1  0
  6 27  1  0
  8 28  1  0
 11 29  1  0
 13 30  1  0
 16 31  1  0
 16 32  1  0
 16 33  1  0
 18 34  1  0
 18 35  1  0
 18 36  1  0
 20 37  1  0
 21 38  1  0
M  END
>  <meeko>  (54) 
{"is_sidechain": false}

>  <vina_energy>  (54) 
-6.62

$$$$

     RDKit          3D

 38 40  0  0  0  0  0  0  0  0999 V2000
   10.5010    4.3070   45.0610 C   0  0  0  0  0  0  0  0  0  0  0  0
   10.4350    5.7880   45.1240 C   0  0  0  0  0  0  0  0  0  0  0  0
    9.5920    6.4820   45.8640 N   0  0  0  0  0  0  0  0  0  0  0  0
    9.8750    7.8000   45.6290 C   0  0  0  0  0  0  0  0  0  0  0  0
   10.9040    7.9210   44.7280 C   0  0  0  0  0  0  0  0  0  0  0  0
   11.2600    6.6350   44.4180 N   0  0  0  0  0  0  0  0  0  0  0  0
   12.2910    6.2610   43.4610 C   0  0  0  0  0  0  0  0  0  0  0  0
   12.8250    7.4300   42.6980 C   0  0  0  0  0  0  0  0  0  0  0  0
   12.6030    7.6330   41.3540 C   0  0  0  0  0  0  0  0  0  0  0  0
   13.1170    8.6650   40.6580 N   0  0  0  0  0  0  0  0  0  0  0  0
   13.8880    9.5410   41.3180 C   0  0  0  0  0  0  0  0  0  0  0  0
   14.4590   10.6420   40.6810 N   0  0  0  0  0  0  0  0  0  0  0  0
   15.5950   11.3210   40.9340 C   0  0  0  0  0  0  0  0  0  0  0  0
   16.6730   10.9920   41.7790 C   0  0  0  0  0  0  0  0  0  0  0  0
   17.6290   11.9250   41.7720 N   0  0  0  0  0  0  0  0  0  0  0  0
   17.1600   12.8510   40.9160 N   0  0  0  0  0  0  0  0  0  0  0  0
   17.9530   14.0300   40.6530 C   0  0  0  0  0  0  0  0  0  0  0  0
   15.9340   12.5380   40.3770 C   0  0  0  0  0  0  0  0  0  0  0  0
   15.2360   13.4190   39.4090 C   0  0  0  0  0  0  0  0  0  0  0  0
   14.1700    9.4250   42.6270 N   0  0  0  0  0  0  0  0  0  0  0  0
   13.6400    8.3730   43.2830 C   0  0  0  0  0  0  0  0  0  0  0  0
   10.5193    3.8970   46.0816 H   0  0  0  0  0  0  0  0  0  0  0  0
    9.6191    3.9230   44.5274 H   0  0  0  0  0  0  0  0  0  0  0  0
   11.4136    4.0030   44.5274 H   0  0  0  0  0  0  0  0  0  0  0  0
    9.3505    8.6459   46.0973 H   0  0  0  0  0  0  0  0  0  0  0  0
   11.3468    8.8498   44.3391 H   0  0  0  0  0  0  0  0  0  0  0  0
   13.1213    5.7881   44.0059 H   0  0  0  0  0  0  0  0  0  0  0  0
   11.8345    5.5723   42.7348 H   0  0  0  0  0  0  0  0  0  0  0  0
   11.9695    6.9107   40.8183 H   0  0  0  0  0  0  0  0  0  0  0  0
   13.8480   10.9010   39.9190 H   0  0  0  0  0  0  0  0  0  0  0  0
   16.7221   10.0703   42.3774 H   0  0  0  0  0  0  0  0  0  0  0  0
   18.2596   14.4858   41.6060 H   0  0  0  0  0  0  0  0  0  0  0  0
   18.8468   13.7496   40.0764 H   0  0  0  0  0  0  0  0  0  0  0  0
   17.3563   14.7521   40.0764 H   0  0  0  0  0  0  0  0  0  0  0  0
   14.6432   14.1672   39.9556 H   0  0  0  0  0  0  0  0  0  0  0  0
   15.9776   13.9293   38.7768 H   0  0  0  0  0  0  0  0  0  0  0  0
   14.5696   12.8138   38.7768 H   0  0  0  0  0  0  0  0  0  0  0  0
   13.8733    8.2612   44.3522 H   0  0  0  0  0  0  0  0  0  0  0  0
  1  2  1  0
  2  3  2  0
  3  4  1  0
  4  5  2  0
  5  6  1  0
  6  7  1  0
  7  8  1  0
  8  9  2  0
  9 10  1  0
 10 11  2  0
 11 12  1  0
 12 13  1  0
 13 14  1  0
 14 15  2  0
 15 16  1  0
 16 17  1  0
 16 18  1  0
 18 19  1  0
 11 20  1  0
 20 21  2  0
  6  2  1  0
 21  8  1  0
 18 13  2  0
  1 22  1  0
  1 23  1  0
  1 24  1  0
  4 25  1  0
  5 26  1  0
  7 27  1  0
  7 28  1  0
  9 29  1  0
 12 30  1  0
 14 31  1  0
 17 32  1  0
 17 33  1  0
 17 34  1  0
 19 35  1  0
 19 36  1  0
 19 37  1  0
 21 38  1  0
M  END
>  <meeko>  (55) 
{"is_sidechain": false}

>  <vina_energy>  (55) 
-7.10

$$$$

     RDKit          3D

 37 38  0  0  0  0  0  0  0  0999 V2000
   14.9000   13.0670   39.6220 C   0  0  0  0  0  0  0  0  0  0  0  0
   15.6760   12.2120   40.5540 C   0  0  0  0  0  0  0  0  0  0  0  0
   15.3880   11.0040   41.1570 C   0  0  0  0  0  0  0  0  0  0  0  0
   14.2430   10.3110   40.9990 N   0  0  0  0  0  0  0  0  0  0  0  0
   13.7170    9.2310   41.7090 C   0  0  0  0  0  0  0  0  0  0  0  0
   13.0930    8.3060   40.9610 N   0  0  0  0  0  0  0  0  0  0  0  0
   12.5700    7.2430   41.6050 C   0  0  0  0  0  0  0  0  0  0  0  0
   12.6410    7.0580   42.9670 C   0  0  0  0  0  0  0  0  0  0  0  0
   12.0540    5.8650   43.6570 C   0  0  0  0  0  0  0  0  0  0  0  0
   10.9650    6.2140   44.6900 C   0  0  0  0  0  0  0  0  0  0  0  0
    9.8510    7.0710   44.0810 C   0  0  0  0  0  0  0  0  0  0  0  0
   10.3680    4.9290   45.2680 C   0  0  0  0  0  0  0  0  0  0  0  0
   13.2990    8.0610   43.6410 C   0  0  0  0  0  0  0  0  0  0  0  0
   13.8380    9.1410   43.0420 N   0  0  0  0  0  0  0  0  0  0  0  0
   16.5270   10.6990   41.9300 C   0  0  0  0  0  0  0  0  0  0  0  0
   17.4730   11.6380   41.8340 N   0  0  0  0  0  0  0  0  0  0  0  0
   16.9320   12.5460   41.0000 N   0  0  0  0  0  0  0  0  0  0  0  0
   17.6920   13.7280   40.6620 C   0  0  0  0  0  0  0  0  0  0  0  0
   14.2705   13.7606   40.1987 H   0  0  0  0  0  0  0  0  0  0  0  0
   15.5922   13.6407   38.9882 H   0  0  0  0  0  0  0  0  0  0  0  0
   14.2621   12.4335   38.9882 H   0  0  0  0  0  0  0  0  0  0  0  0
   13.5820   10.5380   40.2680 H   0  0  0  0  0  0  0  0  0  0  0  0
   12.0555    6.4775   41.0056 H   0  0  0  0  0  0  0  0  0  0  0  0
   11.6103    5.2076   42.8948 H   0  0  0  0  0  0  0  0  0  0  0  0
   12.8731    5.3800   44.2082 H   0  0  0  0  0  0  0  0  0  0  0  0
   11.4408    6.8009   45.4895 H   0  0  0  0  0  0  0  0  0  0  0  0
    9.2575    7.5276   44.8868 H   0  0  0  0  0  0  0  0  0  0  0  0
   10.2954    7.8623   43.4594 H   0  0  0  0  0  0  0  0  0  0  0  0
    9.2001    6.4386   43.4594 H   0  0  0  0  0  0  0  0  0  0  0  0
   10.3900    4.9764   46.3668 H   0  0  0  0  0  0  0  0  0  0  0  0
    9.3279    4.8219   44.9264 H   0  0  0  0  0  0  0  0  0  0  0  0
   10.9570    4.0650   44.9264 H   0  0  0  0  0  0  0  0  0  0  0  0
   13.3905    7.9761   44.7339 H   0  0  0  0  0  0  0  0  0  0  0  0
   16.6258    9.7909   42.5428 H   0  0  0  0  0  0  0  0  0  0  0  0
   18.0160   14.2319   41.5846 H   0  0  0  0  0  0  0  0  0  0  0  0
   18.5747   13.4401   40.0721 H   0  0  0  0  0  0  0  0  0  0  0  0
   17.0638   14.4116   40.0721 H   0  0  0  0  0  0  0  0  0  0  0  0
  1  2  1  0
  2  3  2  0
  3  4  1  0
  4  5  1  0
  5  6  2  0
  6  7  1  0
  7  8  2  0
  8  9  1  0
  9 10  1  0
 10 11  1  0
 10 12  1  0
  8 13  1  0
 13 14  2  0
  3 15  1  0
 15 16  2  0
 16 17  1  0
 17 18  1  0
 17  2  1  0
 14  5  1  0
  1 19  1  0
  1 20  1  0
  1 21  1  0
  4 22  1  0
  7 23  1  0
  9 24  1  0
  9 25  1  0
 10 26  1  0
 11 27  1  0
 11 28  1  0
 11 29  1  0
 12 30  1  0
 12 31  1  0
 12 32  1  0
 13 33  1  0
 15 34  1  0
 18 35  1  0
 18 36  1  0
 18 37  1  0
M  END
>  <meeko>  (56) 
{"is_sidechain": false}

>  <vina_energy>  (56) 
-6.50

$$$$

     RDKit          3D

 37 38  0  0  0  0  0  0  0  0999 V2000
    8.3470    8.2450   46.7930 C   0  0  0  0  0  0  0  0  0  0  0  0
    9.5040    7.3360   46.4070 C   0  0  0  0  0  0  0  0  0  0  0  0
    9.1460    6.3220   45.3180 C   0  0  0  0  0  0  0  0  0  0  0  0
   10.3570    5.5470   44.7910 C   0  0  0  0  0  0  0  0  0  0  0  0
   11.3720    6.4580   44.1750 C   0  0  0  0  0  0  0  0  0  0  0  0
   12.6660    6.0650   43.9160 C   0  0  0  0  0  0  0  0  0  0  0  0
   13.5940    6.8600   43.3470 N   0  0  0  0  0  0  0  0  0  0  0  0
   13.2150    8.1070   43.0170 C   0  0  0  0  0  0  0  0  0  0  0  0
   14.2090    8.8940   42.4320 N   0  0  0  0  0  0  0  0  0  0  0  0
   14.1420    9.8470   41.4830 C   0  0  0  0  0  0  0  0  0  0  0  0
   13.1540   10.0780   40.5050 C   0  0  0  0  0  0  0  0  0  0  0  0
   13.4380   11.1310   39.7340 N   0  0  0  0  0  0  0  0  0  0  0  0
   14.6090   11.5760   40.2250 N   0  0  0  0  0  0  0  0  0  0  0  0
   15.2300   12.7320   39.6210 C   0  0  0  0  0  0  0  0  0  0  0  0
   15.0850   10.8330   41.2800 C   0  0  0  0  0  0  0  0  0  0  0  0
   16.3640   11.1440   41.9670 C   0  0  0  0  0  0  0  0  0  0  0  0
   11.9760    8.5800   43.2240 N   0  0  0  0  0  0  0  0  0  0  0  0
   11.0830    7.7490   43.7950 C   0  0  0  0  0  0  0  0  0  0  0  0
    8.2751    8.3015   47.8892 H   0  0  0  0  0  0  0  0  0  0  0  0
    8.5195    9.2516   46.3845 H   0  0  0  0  0  0  0  0  0  0  0  0
    7.4098    7.8392   46.3845 H   0  0  0  0  0  0  0  0  0  0  0  0
   10.3316    7.9618   46.0417 H   0  0  0  0  0  0  0  0  0  0  0  0
    9.7792    6.7632   47.3049 H   0  0  0  0  0  0  0  0  0  0  0  0
    8.4251    5.6028   45.7339 H   0  0  0  0  0  0  0  0  0  0  0  0
    8.7268    6.8865   44.4720 H   0  0  0  0  0  0  0  0  0  0  0  0
   10.8246    5.0053   45.6264 H   0  0  0  0  0  0  0  0  0  0  0  0
   10.0069    4.8497   44.0157 H   0  0  0  0  0  0  0  0  0  0  0  0
   12.9600    5.0410   44.1898 H   0  0  0  0  0  0  0  0  0  0  0  0
   15.0870    8.6310   42.8590 H   0  0  0  0  0  0  0  0  0  0  0  0
   12.2508    9.4607   40.3896 H   0  0  0  0  0  0  0  0  0  0  0  0
   15.5928   13.4074   40.4098 H   0  0  0  0  0  0  0  0  0  0  0  0
   16.0762   12.4094   38.9966 H   0  0  0  0  0  0  0  0  0  0  0  0
   14.4938   13.2595   38.9966 H   0  0  0  0  0  0  0  0  0  0  0  0
   16.2136   11.1074   43.0561 H   0  0  0  0  0  0  0  0  0  0  0  0
   17.1252   10.4048   41.6770 H   0  0  0  0  0  0  0  0  0  0  0  0
   16.7008   12.1502   41.6770 H   0  0  0  0  0  0  0  0  0  0  0  0
   10.0634    8.1239   43.9677 H   0  0  0  0  0  0  0  0  0  0  0  0
  1  2  1  0
  2  3  1  0
  3  4  1  0
  4  5  1  0
  5  6  2  0
  6  7  1  0
  7  8  2  0
  8  9  1  0
  9 10  1  0
 10 11  1  0
 11 12  2  0
 12 13  1  0
 13 14  1  0
 13 15  1  0
 15 16  1  0
  8 17  1  0
 17 18  2  0
 18  5  1  0
 15 10  2  0
  1 19  1  0
  1 20  1  0
  1 21  1  0
  2 22  1  0
  2 23  1  0
  3 24  1  0
  3 25  1  0
  4 26  1  0
  4 27  1  0
  6 28  1  0
  9 29  1  0
 11 30  1  0
 14 31  1  0
 14 32  1  0
 14 33  1  0
 16 34  1  0
 16 35  1  0
 16 36  1  0
 18 37  1  0
M  END
>  <meeko>  (57) 
{"is_sidechain": false}

>  <vina_energy>  (57) 
-6.54

$$$$

     RDKit          3D

 40 41  0  0  0  0  0  0  0  0999 V2000
   15.2100   13.4140   39.3230 C   0  0  0  0  0  0  0  0  0  0  0  0
   15.9580   12.5640   40.2790 C   0  0  0  0  0  0  0  0  0  0  0  0
   15.6880   11.3220   40.8190 C   0  0  0  0  0  0  0  0  0  0  0  0
   14.5910   10.5860   40.5590 N   0  0  0  0  0  0  0  0  0  0  0  0
   13.9130    9.6410   41.3310 C   0  0  0  0  0  0  0  0  0  0  0  0
   13.3210    8.6540   40.6360 N   0  0  0  0  0  0  0  0  0  0  0  0
   12.6550    7.7190   41.3420 C   0  0  0  0  0  0  0  0  0  0  0  0
   12.5550    7.7180   42.7150 C   0  0  0  0  0  0  0  0  0  0  0  0
   11.7910    6.6770   43.4740 C   0  0  0  0  0  0  0  0  0  0  0  0
   10.3860    7.1670   43.8420 C   0  0  0  0  0  0  0  0  0  0  0  0
    9.6670    6.3460   44.9290 C   0  0  0  0  0  0  0  0  0  0  0  0
   10.4850    5.1360   45.3820 C   0  0  0  0  0  0  0  0  0  0  0  0
    9.2620    7.1990   46.1310 C   0  0  0  0  0  0  0  0  0  0  0  0
   13.1890    8.7740   43.3310 C   0  0  0  0  0  0  0  0  0  0  0  0
   13.8660    9.7320   42.6690 N   0  0  0  0  0  0  0  0  0  0  0  0
   16.7840   11.0410   41.6590 C   0  0  0  0  0  0  0  0  0  0  0  0
   17.6890   12.0250   41.6610 N   0  0  0  0  0  0  0  0  0  0  0  0
   17.1630   12.9380   40.8260 N   0  0  0  0  0  0  0  0  0  0  0  0
   17.8870   14.1650   40.5840 C   0  0  0  0  0  0  0  0  0  0  0  0
   14.5829   14.1266   39.8789 H   0  0  0  0  0  0  0  0  0  0  0  0
   15.9202   13.9665   38.6902 H   0  0  0  0  0  0  0  0  0  0  0  0
   14.5717   12.7798   38.6902 H   0  0  0  0  0  0  0  0  0  0  0  0
   14.0990   10.6610   39.6790 H   0  0  0  0  0  0  0  0  0  0  0  0
   12.1613    6.9073   40.7875 H   0  0  0  0  0  0  0  0  0  0  0  0
   11.7030    5.7740   42.8520 H   0  0  0  0  0  0  0  0  0  0  0  0
   12.3354    6.4602   44.4049 H   0  0  0  0  0  0  0  0  0  0  0  0
   10.4703    8.2040   44.1992 H   0  0  0  0  0  0  0  0  0  0  0  0
    9.7789    7.0632   42.9306 H   0  0  0  0  0  0  0  0  0  0  0  0
    8.7463    5.9713   44.4580 H   0  0  0  0  0  0  0  0  0  0  0  0
   10.5091    5.1004   46.4812 H   0  0  0  0  0  0  0  0  0  0  0  0
   10.0231    4.2156   44.9953 H   0  0  0  0  0  0  0  0  0  0  0  0
   11.5112    5.2216   44.9953 H   0  0  0  0  0  0  0  0  0  0  0  0
    9.5146    6.6669   47.0600 H   0  0  0  0  0  0  0  0  0  0  0  0
    9.8013    8.1572   46.0990 H   0  0  0  0  0  0  0  0  0  0  0  0
    8.1786    7.3868   46.0990 H   0  0  0  0  0  0  0  0  0  0  0  0
   13.1396    8.8389   44.4280 H   0  0  0  0  0  0  0  0  0  0  0  0
   16.8836   10.1165   42.2467 H   0  0  0  0  0  0  0  0  0  0  0  0
   18.1590   14.6259   41.5450 H   0  0  0  0  0  0  0  0  0  0  0  0
   18.8001   13.9451   40.0114 H   0  0  0  0  0  0  0  0  0  0  0  0
   17.2530   14.8580   40.0114 H   0  0  0  0  0  0  0  0  0  0  0  0
  1  2  1  0
  2  3  2  0
  3  4  1  0
  4  5  1  0
  5  6  2  0
  6  7  1  0
  7  8  2  0
  8  9  1  0
  9 10  1  0
 10 11  1  0
 11 12  1  0
 11 13  1  0
  8 14  1  0
 14 15  2  0
  3 16  1  0
 16 17  2  0
 17 18  1  0
 18 19  1  0
 18  2  1  0
 15  5  1  0
  1 20  1  0
  1 21  1  0
  1 22  1  0
  4 23  1  0
  7 24  1  0
  9 25  1  0
  9 26  1  0
 10 27  1  0
 10 28  1  0
 11 29  1  0
 12 30  1  0
 12 31  1  0
 12 32  1  0
 13 33  1  0
 13 34  1  0
 13 35  1  0
 14 36  1  0
 16 37  1  0
 19 38  1  0
 19 39  1  0
 19 40  1  0
M  END
>  <meeko>  (58) 
{"is_sidechain": false}

>  <vina_energy>  (58) 
-6.38

$$$$

     RDKit          3D

 43 44  0  0  0  0  0  0  0  0999 V2000
   17.2060   14.8880   38.2800 C   0  0  0  0  0  0  0  0  0  0  0  0
   17.6890   14.2360   39.5230 C   0  0  0  0  0  0  0  0  0  0  0  0
   17.0460   13.4750   40.4780 C   0  0  0  0  0  0  0  0  0  0  0  0
   15.7370   13.1510   40.4620 N   0  0  0  0  0  0  0  0  0  0  0  0
   15.0940   11.9450   40.7330 C   0  0  0  0  0  0  0  0  0  0  0  0
   15.5700   11.0800   41.6430 N   0  0  0  0  0  0  0  0  0  0  0  0
   14.8940    9.9400   41.8470 C   0  0  0  0  0  0  0  0  0  0  0  0
   13.7510    9.5990   41.1590 C   0  0  0  0  0  0  0  0  0  0  0  0
   13.0570    8.2970   41.3550 C   0  0  0  0  0  0  0  0  0  0  0  0
   11.8640    8.4350   42.2560 N   0  0  0  0  0  0  0  0  0  0  0  0
   11.8730    7.7310   43.5990 C   0  0  0  0  0  0  0  0  0  0  0  0
   12.8580    6.5610   43.5620 C   0  0  0  0  0  0  0  0  0  0  0  0
   10.4560    7.2650   43.9440 C   0  0  0  0  0  0  0  0  0  0  0  0
   12.3410    8.7740   44.6260 C   0  0  0  0  0  0  0  0  0  0  0  0
   13.3320   10.5440   40.2500 C   0  0  0  0  0  0  0  0  0  0  0  0
   13.9820   11.6990   40.0210 N   0  0  0  0  0  0  0  0  0  0  0  0
   18.0450   13.1450   41.4150 C   0  0  0  0  0  0  0  0  0  0  0  0
   19.2370   13.6500   41.0870 N   0  0  0  0  0  0  0  0  0  0  0  0
   18.9950   14.3220   39.9460 N   0  0  0  0  0  0  0  0  0  0  0  0
   20.0810   15.0260   39.3030 C   0  0  0  0  0  0  0  0  0  0  0  0
   16.5698   15.7469   38.5399 H   0  0  0  0  0  0  0  0  0  0  0  0
   18.0669   15.2348   37.6895 H   0  0  0  0  0  0  0  0  0  0  0  0
   16.6235   14.1655   37.6895 H   0  0  0  0  0  0  0  0  0  0  0  0
   15.0330   13.8440   40.2430 H   0  0  0  0  0  0  0  0  0  0  0  0
   15.2732    9.2391   42.6052 H   0  0  0  0  0  0  0  0  0  0  0  0
   12.7236    7.9197   40.3770 H   0  0  0  0  0  0  0  0  0  0  0  0
   13.7642    7.5985   41.8261 H   0  0  0  0  0  0  0  0  0  0  0  0
   11.0310    8.1200   41.7340 H   0  0  0  0  0  0  0  0  0  0  0  0
   11.7020    9.4390   42.4170 H   0  0  0  0  0  0  0  0  0  0  0  0
   13.1102    6.2614   44.5899 H   0  0  0  0  0  0  0  0  0  0  0  0
   12.3989    5.7117   43.0347 H   0  0  0  0  0  0  0  0  0  0  0  0
   13.7731    6.8686   43.0347 H   0  0  0  0  0  0  0  0  0  0  0  0
   10.3386    7.2264   45.0370 H   0  0  0  0  0  0  0  0  0  0  0  0
    9.7251    7.9701   43.5214 H   0  0  0  0  0  0  0  0  0  0  0  0
   10.2862    6.2637   43.5214 H   0  0  0  0  0  0  0  0  0  0  0  0
   12.1689    8.3905   45.6425 H   0  0  0  0  0  0  0  0  0  0  0  0
   13.4140    8.9713   44.4853 H   0  0  0  0  0  0  0  0  0  0  0  0
   11.7751    9.7067   44.4853 H   0  0  0  0  0  0  0  0  0  0  0  0
   12.4137   10.3432   39.6786 H   0  0  0  0  0  0  0  0  0  0  0  0
   17.8636   12.5396   42.3153 H   0  0  0  0  0  0  0  0  0  0  0  0
   20.7437   15.4556   40.0686 H   0  0  0  0  0  0  0  0  0  0  0  0
   20.6515   14.3255   38.6755 H   0  0  0  0  0  0  0  0  0  0  0  0
   19.6744   15.8328   38.6755 H   0  0  0  0  0  0  0  0  0  0  0  0
  1  2  1  0
  2  3  2  0
  3  4  1  0
  4  5  1  0
  5  6  2  0
  6  7  1  0
  7  8  2  0
  8  9  1  0
  9 10  1  0
 10 11  1  0
 11 12  1  0
 11 13  1  0
 11 14  1  0
  8 15  1  0
 15 16  2  0
  3 17  1  0
 17 18  2  0
 18 19  1  0
 19 20  1  0
 19  2  1  0
 16  5  1  0
  1 21  1  0
  1 22  1  0
  1 23  1  0
  4 24  1  0
  7 25  1  0
  9 26  1  0
  9 27  1  0
 10 28  1  0
 10 29  1  0
 12 30  1  0
 12 31  1  0
 12 32  1  0
 13 33  1  0
 13 34  1  0
 13 35  1  0
 14 36  1  0
 14 37  1  0
 14 38  1  0
 15 39  1  0
 17 40  1  0
 20 41  1  0
 20 42  1  0
 20 43  1  0
M  CHG  1  10   1
M  END
>  <meeko>  (59) 
{"is_sidechain": false}

>  <vina_energy>  (59) 
-5.77

$$$$

     RDKit          3D

 43 44  0  0  0  0  0  0  0  0999 V2000
   18.5700   14.6370   39.1850 C   0  0  0  0  0  0  0  0  0  0  0  0
   18.5690   14.8650   40.6520 C   0  0  0  0  0  0  0  0  0  0  0  0
   18.4220   14.0040   41.7210 C   0  0  0  0  0  0  0  0  0  0  0  0
   18.2430   12.6710   41.6270 N   0  0  0  0  0  0  0  0  0  0  0  0
   17.0780   11.9090   41.5850 C   0  0  0  0  0  0  0  0  0  0  0  0
   17.0680   10.8070   42.3510 N   0  0  0  0  0  0  0  0  0  0  0  0
   15.9620   10.0400   42.3360 C   0  0  0  0  0  0  0  0  0  0  0  0
   14.8520   10.3140   41.5670 C   0  0  0  0  0  0  0  0  0  0  0  0
   13.6570    9.4270   41.5260 C   0  0  0  0  0  0  0  0  0  0  0  0
   13.7450    8.2410   42.4420 N   0  0  0  0  0  0  0  0  0  0  0  0
   12.9330    8.2950   43.7030 C   0  0  0  0  0  0  0  0  0  0  0  0
   11.6970    7.3910   43.6130 C   0  0  0  0  0  0  0  0  0  0  0  0
   12.1310    5.9270   43.7170 C   0  0  0  0  0  0  0  0  0  0  0  0
   10.6550    7.6980   44.6890 C   0  0  0  0  0  0  0  0  0  0  0  0
   14.9470   11.4700   40.8290 C   0  0  0  0  0  0  0  0  0  0  0  0
   16.0350   12.2580   40.8150 N   0  0  0  0  0  0  0  0  0  0  0  0
   18.5020   14.8240   42.8640 C   0  0  0  0  0  0  0  0  0  0  0  0
   18.6880   16.1090   42.5570 N   0  0  0  0  0  0  0  0  0  0  0  0
   18.7450   16.1100   41.2120 N   0  0  0  0  0  0  0  0  0  0  0  0
   18.9580   17.3650   40.5270 C   0  0  0  0  0  0  0  0  0  0  0  0
   18.5747   13.5559   38.9820 H   0  0  0  0  0  0  0  0  0  0  0  0
   17.6699   15.0891   38.7430 H   0  0  0  0  0  0  0  0  0  0  0  0
   19.4661   15.0970   38.7430 H   0  0  0  0  0  0  0  0  0  0  0  0
   19.0350   12.0420   41.6010 H   0  0  0  0  0  0  0  0  0  0  0  0
   15.9432    9.1439   42.9736 H   0  0  0  0  0  0  0  0  0  0  0  0
   12.7759   10.0203   41.8120 H   0  0  0  0  0  0  0  0  0  0  0  0
   13.5881    9.0331   40.5012 H   0  0  0  0  0  0  0  0  0  0  0  0
   14.7310    8.1120   42.7080 H   0  0  0  0  0  0  0  0  0  0  0  0
   13.5060    7.3920   41.9130 H   0  0  0  0  0  0  0  0  0  0  0  0
   13.5580    7.9636   44.5454 H   0  0  0  0  0  0  0  0  0  0  0  0
   12.5938    9.3308   43.8518 H   0  0  0  0  0  0  0  0  0  0  0  0
   11.2197    7.5858   42.6413 H   0  0  0  0  0  0  0  0  0  0  0  0
   12.2149    5.6438   44.7766 H   0  0  0  0  0  0  0  0  0  0  0  0
   11.3839    5.2872   43.2246 H   0  0  0  0  0  0  0  0  0  0  0  0
   13.1061    5.7978   43.2246 H   0  0  0  0  0  0  0  0  0  0  0  0
   11.1052    7.5654   45.6838 H   0  0  0  0  0  0  0  0  0  0  0  0
   10.3089    8.7363   44.5786 H   0  0  0  0  0  0  0  0  0  0  0  0
    9.8012    7.0132   44.5786 H   0  0  0  0  0  0  0  0  0  0  0  0
   14.0835   11.7665   40.2154 H   0  0  0  0  0  0  0  0  0  0  0  0
   18.4203   14.4469   43.8941 H   0  0  0  0  0  0  0  0  0  0  0  0
   19.0943   18.1678   41.2665 H   0  0  0  0  0  0  0  0  0  0  0  0
   19.8564   17.2908   39.8966 H   0  0  0  0  0  0  0  0  0  0  0  0
   18.0854   17.5914   39.8966 H   0  0  0  0  0  0  0  0  0  0  0  0
  1  2  1  0
  2  3  2  0
  3  4  1  0
  4  5  1  0
  5  6  2  0
  6  7  1  0
  7  8  2  0
  8  9  1  0
  9 10  1  0
 10 11  1  0
 11 12  1  0
 12 13  1  0
 12 14  1  0
  8 15  1  0
 15 16  2  0
  3 17  1  0
 17 18  2  0
 18 19  1  0
 19 20  1  0
 19  2  1  0
 16  5  1  0
  1 21  1  0
  1 22  1  0
  1 23  1  0
  4 24  1  0
  7 25  1  0
  9 26  1  0
  9 27  1  0
 10 28  1  0
 10 29  1  0
 11 30  1  0
 11 31  1  0
 12 32  1  0
 13 33  1  0
 13 34  1  0
 13 35  1  0
 14 36  1  0
 14 37  1  0
 14 38  1  0
 15 39  1  0
 17 40  1  0
 20 41  1  0
 20 42  1  0
 20 43  1  0
M  CHG  1  10   1
M  END
>  <meeko>  (60) 
{"is_sidechain": false}

>  <vina_energy>  (60) 
-6.36

$$$$

     RDKit          3D

 44 45  0  0  0  0  0  0  0  0999 V2000
   15.2030   13.4340   39.3480 C   0  0  0  0  0  0  0  0  0  0  0  0
   15.9310   12.5580   40.2980 C   0  0  0  0  0  0  0  0  0  0  0  0
   15.6370   11.3180   40.8290 C   0  0  0  0  0  0  0  0  0  0  0  0
   14.5290   10.5990   40.5570 N   0  0  0  0  0  0  0  0  0  0  0  0
   13.9370    9.5410   41.2430 C   0  0  0  0  0  0  0  0  0  0  0  0
   13.1890    8.6210   40.6130 N   0  0  0  0  0  0  0  0  0  0  0  0
   12.6540    7.6300   41.3440 C   0  0  0  0  0  0  0  0  0  0  0  0
   12.8110    7.5190   42.7060 C   0  0  0  0  0  0  0  0  0  0  0  0
   12.1510    6.4520   43.5050 C   0  0  0  0  0  0  0  0  0  0  0  0
   10.7300    6.7980   43.8280 N   0  0  0  0  0  0  0  0  0  0  0  0
   10.0790    6.1670   45.0540 C   0  0  0  0  0  0  0  0  0  0  0  0
   11.0610    5.1770   45.6920 C   0  0  0  0  0  0  0  0  0  0  0  0
    8.8560    5.3930   44.5280 C   0  0  0  0  0  0  0  0  0  0  0  0
    9.6330    7.2590   46.0620 C   0  0  0  0  0  0  0  0  0  0  0  0
    8.2990    7.0320   46.4840 O   0  0  0  0  0  0  0  0  0  0  0  0
   13.5950    8.5020   43.2690 C   0  0  0  0  0  0  0  0  0  0  0  0
   14.1520    9.5060   42.5690 N   0  0  0  0  0  0  0  0  0  0  0  0
   16.7210   11.0160   41.6760 C   0  0  0  0  0  0  0  0  0  0  0  0
   17.6440   11.9800   41.6840 N   0  0  0  0  0  0  0  0  0  0  0  0
   17.1460   12.9050   40.8430 N   0  0  0  0  0  0  0  0  0  0  0  0
   17.8940   14.1200   40.6080 C   0  0  0  0  0  0  0  0  0  0  0  0
   14.5985   14.1614   39.9096 H   0  0  0  0  0  0  0  0  0  0  0  0
   15.9261   13.9692   38.7149 H   0  0  0  0  0  0  0  0  0  0  0  0
   14.5446   12.8211   38.7149 H   0  0  0  0  0  0  0  0  0  0  0  0
   13.9680   10.8010   39.7390 H   0  0  0  0  0  0  0  0  0  0  0  0
   12.0575    6.8650   40.8253 H   0  0  0  0  0  0  0  0  0  0  0  0
   12.1673    5.5146   42.9297 H   0  0  0  0  0  0  0  0  0  0  0  0
   12.7005    6.3442   44.4518 H   0  0  0  0  0  0  0  0  0  0  0  0
   10.1500    6.5600   43.0090 H   0  0  0  0  0  0  0  0  0  0  0  0
   10.6490    7.8220   43.9070 H   0  0  0  0  0  0  0  0  0  0  0  0
   10.9919    5.2466   46.7876 H   0  0  0  0  0  0  0  0  0  0  0  0
   10.8101    4.1546   45.3730 H   0  0  0  0  0  0  0  0  0  0  0  0
   12.0854    5.4196   45.3730 H   0  0  0  0  0  0  0  0  0  0  0  0
    8.2655    5.0193   45.3775 H   0  0  0  0  0  0  0  0  0  0  0  0
    8.2342    6.0624   43.9154 H   0  0  0  0  0  0  0  0  0  0  0  0
    9.1948    4.5445   43.9154 H   0  0  0  0  0  0  0  0  0  0  0  0
   10.2982    7.2363   46.9377 H   0  0  0  0  0  0  0  0  0  0  0  0
    9.6873    8.2408   45.5690 H   0  0  0  0  0  0  0  0  0  0  0  0
    8.2940    6.8800   47.4480 H   0  0  0  0  0  0  0  0  0  0  0  0
   13.7757    8.4634   44.3534 H   0  0  0  0  0  0  0  0  0  0  0  0
   16.7982   10.0899   42.2646 H   0  0  0  0  0  0  0  0  0  0  0  0
   18.1720   14.5716   41.5717 H   0  0  0  0  0  0  0  0  0  0  0  0
   18.8043   13.8855   40.0368 H   0  0  0  0  0  0  0  0  0  0  0  0
   17.2747   14.8272   40.0368 H   0  0  0  0  0  0  0  0  0  0  0  0
  1  2  1  0
  2  3  2  0
  3  4  1  0
  4  5  1  0
  5  6  2  0
  6  7  1  0
  7  8  2  0
  8  9  1  0
  9 10  1  0
 10 11  1  0
 11 12  1  0
 11 13  1  0
 11 14  1  0
 14 15  1  0
  8 16  1  0
 16 17  2  0
  3 18  1  0
 18 19  2  0
 19 20  1  0
 20 21  1  0
 20  2  1  0
 17  5  1  0
  1 22  1  0
  1 23  1  0
  1 24  1  0
  4 25  1  0
  7 26  1  0
  9 27  1  0
  9 28  1  0
 10 29  1  0
 10 30  1  0
 12 31  1  0
 12 32  1  0
 12 33  1  0
 13 34  1  0
 13 35  1  0
 13 36  1  0
 14 37  1  0
 14 38  1  0
 15 39  1  0
 16 40  1  0
 18 41  1  0
 21 42  1  0
 21 43  1  0
 21 44  1  0
M  CHG  1  10   1
M  END
>  <meeko>  (61) 
{"is_sidechain": false}

>  <vina_energy>  (61) 
-6.28

$$$$

     RDKit          3D

 41 42  0  0  0  0  0  0  0  0999 V2000
   21.6380   13.1410   42.3460 C   0  0  0  0  0  0  0  0  0  0  0  0
   20.5010   14.0120   42.7320 C   0  0  0  0  0  0  0  0  0  0  0  0
   19.2040   14.0990   42.2700 C   0  0  0  0  0  0  0  0  0  0  0  0
   18.6790   13.3420   41.2880 N   0  0  0  0  0  0  0  0  0  0  0  0
   17.5340   12.5440   41.2550 C   0  0  0  0  0  0  0  0  0  0  0  0
   17.4560   11.3960   41.9460 N   0  0  0  0  0  0  0  0  0  0  0  0
   16.3110   10.6920   41.8520 C   0  0  0  0  0  0  0  0  0  0  0  0
   15.2310   11.0830   41.0960 C   0  0  0  0  0  0  0  0  0  0  0  0
   13.9650   10.2960   41.0220 C   0  0  0  0  0  0  0  0  0  0  0  0
   13.7540    9.5160   42.2210 N   0  0  0  0  0  0  0  0  0  0  0  0
   13.2200    8.2470   42.1710 C   0  0  0  0  0  0  0  0  0  0  0  0
   12.9450    7.6860   41.1150 O   0  0  0  0  0  0  0  0  0  0  0  0
   12.9960    7.6170   43.5440 C   0  0  0  0  0  0  0  0  0  0  0  0
   12.2410    6.2950   43.4130 C   0  0  0  0  0  0  0  0  0  0  0  0
   12.2400    8.5700   44.4670 C   0  0  0  0  0  0  0  0  0  0  0  0
   15.4030   12.2760   40.4310 C   0  0  0  0  0  0  0  0  0  0  0  0
   16.5320   13.0130   40.4920 N   0  0  0  0  0  0  0  0  0  0  0  0
   18.6080   15.1190   43.0390 C   0  0  0  0  0  0  0  0  0  0  0  0
   19.4560   15.6480   43.9260 N   0  0  0  0  0  0  0  0  0  0  0  0
   20.5970   14.9650   43.7190 N   0  0  0  0  0  0  0  0  0  0  0  0
   21.7580   15.2780   44.5190 C   0  0  0  0  0  0  0  0  0  0  0  0
   22.1333   12.7616   43.2520 H   0  0  0  0  0  0  0  0  0  0  0  0
   21.2658   12.2948   41.7499 H   0  0  0  0  0  0  0  0  0  0  0  0
   22.3581   13.7207   41.7499 H   0  0  0  0  0  0  0  0  0  0  0  0
   19.1150   13.2730   40.3780 H   0  0  0  0  0  0  0  0  0  0  0  0
   16.2358    9.7489   42.4131 H   0  0  0  0  0  0  0  0  0  0  0  0
   13.1205   10.9890   40.8934 H   0  0  0  0  0  0  0  0  0  0  0  0
   14.0382    9.6047   40.1695 H   0  0  0  0  0  0  0  0  0  0  0  0
   13.8030    9.9880   43.1150 H   0  0  0  0  0  0  0  0  0  0  0  0
   13.9818    7.4164   43.9890 H   0  0  0  0  0  0  0  0  0  0  0  0
   12.0157    5.9006   44.4148 H   0  0  0  0  0  0  0  0  0  0  0  0
   11.3020    6.4618   42.8649 H   0  0  0  0  0  0  0  0  0  0  0  0
   12.8618    5.5710   42.8649 H   0  0  0  0  0  0  0  0  0  0  0  0
   12.4481    8.3077   45.5148 H   0  0  0  0  0  0  0  0  0  0  0  0
   12.5673    9.6026   44.2755 H   0  0  0  0  0  0  0  0  0  0  0  0
   11.1600    8.4862   44.2755 H   0  0  0  0  0  0  0  0  0  0  0  0
   14.5724   12.6501   39.8144 H   0  0  0  0  0  0  0  0  0  0  0  0
   17.5633   15.4428   42.9222 H   0  0  0  0  0  0  0  0  0  0  0  0
   21.4981   15.2079   45.5856 H   0  0  0  0  0  0  0  0  0  0  0  0
   22.5639   14.5650   44.2904 H   0  0  0  0  0  0  0  0  0  0  0  0
   22.0963   16.2994   44.2904 H   0  0  0  0  0  0  0  0  0  0  0  0
  1  2  1  0
  2  3  2  0
  3  4  1  0
  4  5  1  0
  5  6  2  0
  6  7  1  0
  7  8  2  0
  8  9  1  0
  9 10  1  0
 10 11  1  0
 11 12  2  0
 11 13  1  0
 13 14  1  0
 13 15  1  0
  8 16  1  0
 16 17  2  0
  3 18  1  0
 18 19  2  0
 19 20  1  0
 20 21  1  0
 20  2  1  0
 17  5  1  0
  1 22  1  0
  1 23  1  0
  1 24  1  0
  4 25  1  0
  7 26  1  0
  9 27  1  0
  9 28  1  0
 10 29  1  0
 13 30  1  0
 14 31  1  0
 14 32  1  0
 14 33  1  0
 15 34  1  0
 15 35  1  0
 15 36  1  0
 16 37  1  0
 18 38  1  0
 21 39  1  0
 21 40  1  0
 21 41  1  0
M  END
>  <meeko>  (62) 
{"is_sidechain": false}

>  <vina_energy>  (62) 
-6.53

$$$$

     RDKit          3D

 41 42  0  0  0  0  0  0  0  0999 V2000
    9.9720    6.7160   45.2090 C   0  0  0  0  0  0  0  0  0  0  0  0
   10.5770    7.2750   43.9310 C   0  0  0  0  0  0  0  0  0  0  0  0
   11.7340    8.2240   44.2280 C   0  0  0  0  0  0  0  0  0  0  0  0
   12.8210    8.1530   43.1720 C   0  0  0  0  0  0  0  0  0  0  0  0
   13.6350    7.2410   43.0860 O   0  0  0  0  0  0  0  0  0  0  0  0
   12.8020    9.2280   42.3100 N   0  0  0  0  0  0  0  0  0  0  0  0
   13.7090    9.3160   41.1870 C   0  0  0  0  0  0  0  0  0  0  0  0
   14.7280   10.3850   41.3880 C   0  0  0  0  0  0  0  0  0  0  0  0
   14.6210   11.6320   40.8150 C   0  0  0  0  0  0  0  0  0  0  0  0
   15.5230   12.6200   40.9920 N   0  0  0  0  0  0  0  0  0  0  0  0
   16.5770   12.3580   41.7800 C   0  0  0  0  0  0  0  0  0  0  0  0
   17.4800   13.4100   41.9340 N   0  0  0  0  0  0  0  0  0  0  0  0
   18.6350   13.6890   41.3000 C   0  0  0  0  0  0  0  0  0  0  0  0
   19.9630   13.4040   41.6790 C   0  0  0  0  0  0  0  0  0  0  0  0
   20.8520   13.8430   40.7840 N   0  0  0  0  0  0  0  0  0  0  0  0
   20.0900   14.4120   39.8330 N   0  0  0  0  0  0  0  0  0  0  0  0
   20.7290   15.0060   38.6810 C   0  0  0  0  0  0  0  0  0  0  0  0
   18.7400   14.3430   40.0900 C   0  0  0  0  0  0  0  0  0  0  0  0
   17.7190   14.9020   39.1690 C   0  0  0  0  0  0  0  0  0  0  0  0
   16.7650   11.1760   42.3890 N   0  0  0  0  0  0  0  0  0  0  0  0
   15.8410   10.2180   42.1810 C   0  0  0  0  0  0  0  0  0  0  0  0
   10.4664    7.1728   46.0790 H   0  0  0  0  0  0  0  0  0  0  0  0
    8.8965    6.9451   45.2363 H   0  0  0  0  0  0  0  0  0  0  0  0
   10.1155    5.6257   45.2363 H   0  0  0  0  0  0  0  0  0  0  0  0
   10.9474    6.4412   43.3165 H   0  0  0  0  0  0  0  0  0  0  0  0
    9.7970    7.8383   43.3978 H   0  0  0  0  0  0  0  0  0  0  0  0
   11.3465    9.2527   44.2685 H   0  0  0  0  0  0  0  0  0  0  0  0
   12.1776    7.9243   45.1889 H   0  0  0  0  0  0  0  0  0  0  0  0
   12.0210    9.8710   42.3490 H   0  0  0  0  0  0  0  0  0  0  0  0
   14.2229    8.3509   41.0666 H   0  0  0  0  0  0  0  0  0  0  0  0
   13.1229    9.5633   40.2896 H   0  0  0  0  0  0  0  0  0  0  0  0
   13.7493   11.8350   40.1755 H   0  0  0  0  0  0  0  0  0  0  0  0
   17.1200   14.0070   42.6680 H   0  0  0  0  0  0  0  0  0  0  0  0
   20.2359   12.8796   42.6066 H   0  0  0  0  0  0  0  0  0  0  0  0
   21.4967   15.7196   39.0148 H   0  0  0  0  0  0  0  0  0  0  0  0
   21.1999   14.2174   38.0756 H   0  0  0  0  0  0  0  0  0  0  0  0
   19.9769   15.5331   38.0756 H   0  0  0  0  0  0  0  0  0  0  0  0
   16.9023   15.3491   39.7548 H   0  0  0  0  0  0  0  0  0  0  0  0
   18.1803   15.6734   38.5348 H   0  0  0  0  0  0  0  0  0  0  0  0
   17.3177   14.0978   38.5348 H   0  0  0  0  0  0  0  0  0  0  0  0
   15.9842    9.2450   42.6738 H   0  0  0  0  0  0  0  0  0  0  0  0
  1  2  1  0
  2  3  1  0
  3  4  1  0
  4  5  2  0
  4  6  1  0
  6  7  1  0
  7  8  1  0
  8  9  2  0
  9 10  1  0
 10 11  2  0
 11 12  1  0
 12 13  1  0
 13 14  1  0
 14 15  2  0
 15 16  1  0
 16 17  1  0
 16 18  1  0
 18 19  1  0
 11 20  1  0
 20 21  2  0
 21  8  1  0
 18 13  2  0
  1 22  1  0
  1 23  1  0
  1 24  1  0
  2 25  1  0
  2 26  1  0
  3 27  1  0
  3 28  1  0
  6 29  1  0
  7 30  1  0
  7 31  1  0
  9 32  1  0
 12 33  1  0
 14 34  1  0
 17 35  1  0
 17 36  1  0
 17 37  1  0
 19 38  1  0
 19 39  1  0
 19 40  1  0
 21 41  1  0
M  END
>  <meeko>  (63) 
{"is_sidechain": false}

>  <vina_energy>  (63) 
-6.64

$$$$

     RDKit          3D

 40 41  0  0  0  0  0  0  0  0999 V2000
   19.2250   14.7560   39.3750 C   0  0  0  0  0  0  0  0  0  0  0  0
   19.0320   15.0060   40.8250 C   0  0  0  0  0  0  0  0  0  0  0  0
   18.6290   14.1860   41.8590 C   0  0  0  0  0  0  0  0  0  0  0  0
   18.3010   12.8850   41.7350 N   0  0  0  0  0  0  0  0  0  0  0  0
   17.0750   12.2650   41.4920 C   0  0  0  0  0  0  0  0  0  0  0  0
   16.8940   11.0930   42.1220 N   0  0  0  0  0  0  0  0  0  0  0  0
   15.7220   10.4560   41.9180 C   0  0  0  0  0  0  0  0  0  0  0  0
   14.7140   10.9460   41.1210 C   0  0  0  0  0  0  0  0  0  0  0  0
   13.4320   10.2180   40.8990 C   0  0  0  0  0  0  0  0  0  0  0  0
   13.0210    9.5710   42.1110 O   0  0  0  0  0  0  0  0  0  0  0  0
   12.9530    8.2110   42.0560 C   0  0  0  0  0  0  0  0  0  0  0  0
   12.9360    7.5540   41.0240 O   0  0  0  0  0  0  0  0  0  0  0  0
   12.9090    7.6380   43.4590 C   0  0  0  0  0  0  0  0  0  0  0  0
   12.2780    6.2520   43.4300 C   0  0  0  0  0  0  0  0  0  0  0  0
   12.1460    8.5680   44.3990 C   0  0  0  0  0  0  0  0  0  0  0  0
   15.0010   12.1450   40.5110 C   0  0  0  0  0  0  0  0  0  0  0  0
   16.1570   12.8160   40.6840 N   0  0  0  0  0  0  0  0  0  0  0  0
   18.6470   15.0060   43.0060 C   0  0  0  0  0  0  0  0  0  0  0  0
   19.0300   16.2570   42.7300 N   0  0  0  0  0  0  0  0  0  0  0  0
   19.2530   16.2340   41.4040 N   0  0  0  0  0  0  0  0  0  0  0  0
   19.6900   17.4430   40.7450 C   0  0  0  0  0  0  0  0  0  0  0  0
   19.8919   13.8921   39.2375 H   0  0  0  0  0  0  0  0  0  0  0  0
   18.2521   14.5464   38.9064 H   0  0  0  0  0  0  0  0  0  0  0  0
   19.6740   15.6441   38.9064 H   0  0  0  0  0  0  0  0  0  0  0  0
   18.9960   12.1540   41.8100 H   0  0  0  0  0  0  0  0  0  0  0  0
   15.5638    9.4891   42.4180 H   0  0  0  0  0  0  0  0  0  0  0  0
   12.6564   10.9325   40.5861 H   0  0  0  0  0  0  0  0  0  0  0  0
   13.5775    9.4598   40.1155 H   0  0  0  0  0  0  0  0  0  0  0  0
   13.9368    7.5484   43.8407 H   0  0  0  0  0  0  0  0  0  0  0  0
   12.1179    5.9004   44.4599 H   0  0  0  0  0  0  0  0  0  0  0  0
   11.3128    6.2995   42.9046 H   0  0  0  0  0  0  0  0  0  0  0  0
   12.9476    5.5552   42.9046 H   0  0  0  0  0  0  0  0  0  0  0  0
   12.3678    8.2977   45.4419 H   0  0  0  0  0  0  0  0  0  0  0  0
   12.4546    9.6079   44.2162 H   0  0  0  0  0  0  0  0  0  0  0  0
   11.0659    8.4685   44.2162 H   0  0  0  0  0  0  0  0  0  0  0  0
   14.2433   12.5814   39.8435 H   0  0  0  0  0  0  0  0  0  0  0  0
   18.3767   14.6563   44.0133 H   0  0  0  0  0  0  0  0  0  0  0  0
   19.9617   18.1948   41.5006 H   0  0  0  0  0  0  0  0  0  0  0  0
   20.5652   17.2221   40.1163 H   0  0  0  0  0  0  0  0  0  0  0  0
   18.8758   17.8327   40.1163 H   0  0  0  0  0  0  0  0  0  0  0  0
  1  2  1  0
  2  3  2  0
  3  4  1  0
  4  5  1  0
  5  6  2  0
  6  7  1  0
  7  8  2  0
  8  9  1  0
  9 10  1  0
 10 11  1  0
 11 12  2  0
 11 13  1  0
 13 14  1  0
 13 15  1  0
  8 16  1  0
 16 17  2  0
  3 18  1  0
 18 19  2  0
 19 20  1  0
 20 21  1  0
 20  2  1  0
 17  5  1  0
  1 22  1  0
  1 23  1  0
  1 24  1  0
  4 25  1  0
  7 26  1  0
  9 27  1  0
  9 28  1  0
 13 29  1  0
 14 30  1  0
 14 31  1  0
 14 32  1  0
 15 33  1  0
 15 34  1  0
 15 35  1  0
 16 36  1  0
 18 37  1  0
 21 38  1  0
 21 39  1  0
 21 40  1  0
M  END
>  <meeko>  (64) 
{"is_sidechain": false}

>  <vina_energy>  (64) 
-6.35

$$$$

     RDKit          3D

 40 41  0  0  0  0  0  0  0  0999 V2000
   10.2040    6.1240   45.1870 C   0  0  0  0  0  0  0  0  0  0  0  0
   10.4900    7.1840   44.1310 C   0  0  0  0  0  0  0  0  0  0  0  0
   11.6660    8.0820   44.5040 C   0  0  0  0  0  0  0  0  0  0  0  0
   12.7410    8.0560   43.4480 C   0  0  0  0  0  0  0  0  0  0  0  0
   13.3500    7.0520   43.1050 O   0  0  0  0  0  0  0  0  0  0  0  0
   12.9560    9.3050   42.9540 O   0  0  0  0  0  0  0  0  0  0  0  0
   13.4630    9.3140   41.6160 C   0  0  0  0  0  0  0  0  0  0  0  0
   14.6910   10.1600   41.5790 C   0  0  0  0  0  0  0  0  0  0  0  0
   15.8190    9.8790   42.3160 C   0  0  0  0  0  0  0  0  0  0  0  0
   16.9300   10.6430   42.3140 N   0  0  0  0  0  0  0  0  0  0  0  0
   16.9190   11.7440   41.5420 C   0  0  0  0  0  0  0  0  0  0  0  0
   18.0910   12.5020   41.5710 N   0  0  0  0  0  0  0  0  0  0  0  0
   18.2830   13.8350   41.6040 C   0  0  0  0  0  0  0  0  0  0  0  0
   18.4410   14.6980   42.7060 C   0  0  0  0  0  0  0  0  0  0  0  0
   18.6140   15.9710   42.3370 N   0  0  0  0  0  0  0  0  0  0  0  0
   18.5740   15.9170   40.9920 N   0  0  0  0  0  0  0  0  0  0  0  0
   18.7300   17.1400   40.2400 C   0  0  0  0  0  0  0  0  0  0  0  0
   18.3620   14.6520   40.4940 C   0  0  0  0  0  0  0  0  0  0  0  0
   18.2620   14.3650   39.0410 C   0  0  0  0  0  0  0  0  0  0  0  0
   15.8670   12.1040   40.7910 N   0  0  0  0  0  0  0  0  0  0  0  0
   14.7800   11.3090   40.8250 C   0  0  0  0  0  0  0  0  0  0  0  0
   10.3224    6.5630   46.1886 H   0  0  0  0  0  0  0  0  0  0  0  0
    9.1744    5.7558   45.0675 H   0  0  0  0  0  0  0  0  0  0  0  0
   10.9087    5.2878   45.0675 H   0  0  0  0  0  0  0  0  0  0  0  0
   10.7187    6.6810   43.1799 H   0  0  0  0  0  0  0  0  0  0  0  0
    9.5973    7.8214   44.0486 H   0  0  0  0  0  0  0  0  0  0  0  0
   11.3042    9.1143   44.6197 H   0  0  0  0  0  0  0  0  0  0  0  0
   12.0985    7.7095   45.4443 H   0  0  0  0  0  0  0  0  0  0  0  0
   13.7103    8.2879   41.3063 H   0  0  0  0  0  0  0  0  0  0  0  0
   12.7056    9.7202   40.9295 H   0  0  0  0  0  0  0  0  0  0  0  0
   15.8138    8.9764   42.9448 H   0  0  0  0  0  0  0  0  0  0  0  0
   18.8670   11.8550   41.5720 H   0  0  0  0  0  0  0  0  0  0  0  0
   18.4239   14.3619   43.7532 H   0  0  0  0  0  0  0  0  0  0  0  0
   18.8379   17.9862   40.9345 H   0  0  0  0  0  0  0  0  0  0  0  0
   19.6264   17.0690   39.6064 H   0  0  0  0  0  0  0  0  0  0  0  0
   17.8445   17.2963   39.6064 H   0  0  0  0  0  0  0  0  0  0  0  0
   17.9033   13.3355   38.8944 H   0  0  0  0  0  0  0  0  0  0  0  0
   17.5562   15.0689   38.5759 H   0  0  0  0  0  0  0  0  0  0  0  0
   19.2524   14.4779   38.5759 H   0  0  0  0  0  0  0  0  0  0  0  0
   13.9112   11.5948   40.2138 H   0  0  0  0  0  0  0  0  0  0  0  0
  1  2  1  0
  2  3  1  0
  3  4  1  0
  4  5  2  0
  4  6  1  0
  6  7  1  0
  7  8  1  0
  8  9  2  0
  9 10  1  0
 10 11  2  0
 11 12  1  0
 12 13  1  0
 13 14  1  0
 14 15  2  0
 15 16  1  0
 16 17  1  0
 16 18  1  0
 18 19  1  0
 11 20  1  0
 20 21  2  0
 21  8  1  0
 18 13  2  0
  1 22  1  0
  1 23  1  0
  1 24  1  0
  2 25  1  0
  2 26  1  0
  3 27  1  0
  3 28  1  0
  7 29  1  0
  7 30  1  0
  9 31  1  0
 12 32  1  0
 14 33  1  0
 17 34  1  0
 17 35  1  0
 17 36  1  0
 19 37  1  0
 19 38  1  0
 19 39  1  0
 21 40  1  0
M  END
>  <meeko>  (65) 
{"is_sidechain": false}

>  <vina_energy>  (65) 
-6.42

$$$$

     RDKit          3D

 40 41  0  0  0  0  0  0  0  0999 V2000
   14.7060   12.5830   40.0190 C   0  0  0  0  0  0  0  0  0  0  0  0
   15.4420   11.7210   40.9760 C   0  0  0  0  0  0  0  0  0  0  0  0
   15.1210   10.5220   41.5800 C   0  0  0  0  0  0  0  0  0  0  0  0
   13.9700    9.8440   41.4000 N   0  0  0  0  0  0  0  0  0  0  0  0
   13.2800    8.9740   42.2420 C   0  0  0  0  0  0  0  0  0  0  0  0
   12.8500    9.3600   43.4530 N   0  0  0  0  0  0  0  0  0  0  0  0
   12.1950    8.4620   44.2040 C   0  0  0  0  0  0  0  0  0  0  0  0
   11.9590    7.1620   43.8130 C   0  0  0  0  0  0  0  0  0  0  0  0
   11.2630    6.1640   44.6870 C   0  0  0  0  0  0  0  0  0  0  0  0
    9.7330    6.3700   44.8590 C   0  0  0  0  0  0  0  0  0  0  0  0
    8.9560    5.0500   44.8890 C   0  0  0  0  0  0  0  0  0  0  0  0
    9.3790    7.2360   46.0710 C   0  0  0  0  0  0  0  0  0  0  0  0
    9.2430    7.1230   43.6420 N   0  0  0  0  0  0  0  0  0  0  0  0
   12.4250    6.8610   42.5510 C   0  0  0  0  0  0  0  0  0  0  0  0
   13.0840    7.7340   41.7670 N   0  0  0  0  0  0  0  0  0  0  0  0
   16.2350   10.2070   42.3830 C   0  0  0  0  0  0  0  0  0  0  0  0
   17.1990   11.1280   42.3000 N   0  0  0  0  0  0  0  0  0  0  0  0
   16.6950   12.0390   41.4470 N   0  0  0  0  0  0  0  0  0  0  0  0
   17.4800   13.2070   41.1200 C   0  0  0  0  0  0  0  0  0  0  0  0
   14.0896   13.3049   40.5749 H   0  0  0  0  0  0  0  0  0  0  0  0
   15.4243   13.1249   39.3862 H   0  0  0  0  0  0  0  0  0  0  0  0
   14.0583   11.9585   39.3862 H   0  0  0  0  0  0  0  0  0  0  0  0
   13.4440    9.9290   40.5400 H   0  0  0  0  0  0  0  0  0  0  0  0
   11.8248    8.7820   45.1892 H   0  0  0  0  0  0  0  0  0  0  0  0
   11.4229    5.1657   44.2536 H   0  0  0  0  0  0  0  0  0  0  0  0
   11.6969    6.2898   45.6899 H   0  0  0  0  0  0  0  0  0  0  0  0
    8.7803    4.7516   45.9331 H   0  0  0  0  0  0  0  0  0  0  0  0
    7.9909    5.1809   44.3777 H   0  0  0  0  0  0  0  0  0  0  0  0
    9.5389    4.2697   44.3777 H   0  0  0  0  0  0  0  0  0  0  0  0
    9.6049    6.6835   46.9950 H   0  0  0  0  0  0  0  0  0  0  0  0
    9.9703    8.1632   46.0444 H   0  0  0  0  0  0  0  0  0  0  0  0
    8.3075    7.4835   46.0444 H   0  0  0  0  0  0  0  0  0  0  0  0
    9.3010    6.5420   42.7920 H   0  0  0  0  0  0  0  0  0  0  0  0
    8.2580    7.4120   43.7350 H   0  0  0  0  0  0  0  0  0  0  0  0
    9.7960    7.9720   43.4590 H   0  0  0  0  0  0  0  0  0  0  0  0
   12.2477    5.8475   42.1619 H   0  0  0  0  0  0  0  0  0  0  0  0
   16.3032    9.3043   43.0079 H   0  0  0  0  0  0  0  0  0  0  0  0
   17.8102   13.6982   42.0472 H   0  0  0  0  0  0  0  0  0  0  0  0
   18.3592   12.9050   40.5319 H   0  0  0  0  0  0  0  0  0  0  0  0
   16.8683   13.9070   40.5319 H   0  0  0  0  0  0  0  0  0  0  0  0
  1  2  1  0
  2  3  2  0
  3  4  1  0
  4  5  1  0
  5  6  2  0
  6  7  1  0
  7  8  2  0
  8  9  1  0
  9 10  1  0
 10 11  1  0
 10 12  1  0
 10 13  1  0
  8 14  1  0
 14 15  2  0
  3 16  1  0
 16 17  2  0
 17 18  1  0
 18 19  1  0
 18  2  1  0
 15  5  1  0
  1 20  1  0
  1 21  1  0
  1 22  1  0
  4 23  1  0
  7 24  1  0
  9 25  1  0
  9 26  1  0
 11 27  1  0
 11 28  1  0
 11 29  1  0
 12 30  1  0
 12 31  1  0
 12 32  1  0
 13 33  1  0
 13 34  1  0
 13 35  1  0
 14 36  1  0
 16 37  1  0
 19 38  1  0
 19 39  1  0
 19 40  1  0
M  CHG  1  13   1
M  END
>  <meeko>  (66) 
{"is_sidechain": false}

>  <vina_energy>  (66) 
-6.53

$$$$

     RDKit          3D

 40 41  0  0  0  0  0  0  0  0999 V2000
   18.6840   14.5830   39.1110 C   0  0  0  0  0  0  0  0  0  0  0  0
   18.6000   14.8220   40.5740 C   0  0  0  0  0  0  0  0  0  0  0  0
   18.3950   13.9730   41.6420 C   0  0  0  0  0  0  0  0  0  0  0  0
   18.2140   12.6400   41.5510 N   0  0  0  0  0  0  0  0  0  0  0  0
   17.0470   11.8800   41.5140 C   0  0  0  0  0  0  0  0  0  0  0  0
   17.0460   10.7670   42.2670 N   0  0  0  0  0  0  0  0  0  0  0  0
   15.9390   10.0030   42.2570 C   0  0  0  0  0  0  0  0  0  0  0  0
   14.8170   10.2920   41.5130 C   0  0  0  0  0  0  0  0  0  0  0  0
   13.6250    9.4030   41.4660 C   0  0  0  0  0  0  0  0  0  0  0  0
   13.7020    8.3100   42.4880 N   0  0  0  0  0  0  0  0  0  0  0  0
   12.3930    7.8640   43.0810 C   0  0  0  0  0  0  0  0  0  0  0  0
   12.1750    8.6500   44.3700 C   0  0  0  0  0  0  0  0  0  0  0  0
   12.4300    6.3660   43.3500 C   0  0  0  0  0  0  0  0  0  0  0  0
   14.9050   11.4540   40.7820 C   0  0  0  0  0  0  0  0  0  0  0  0
   15.9950   12.2380   40.7630 N   0  0  0  0  0  0  0  0  0  0  0  0
   18.4200   14.8040   42.7790 C   0  0  0  0  0  0  0  0  0  0  0  0
   18.6210   16.0870   42.4680 N   0  0  0  0  0  0  0  0  0  0  0  0
   18.7390   16.0740   41.1280 N   0  0  0  0  0  0  0  0  0  0  0  0
   18.9790   17.3170   40.4310 C   0  0  0  0  0  0  0  0  0  0  0  0
   19.0436   13.5599   38.9267 H   0  0  0  0  0  0  0  0  0  0  0  0
   17.6880   14.7082   38.6612 H   0  0  0  0  0  0  0  0  0  0  0  0
   19.3827   15.3038   38.6612 H   0  0  0  0  0  0  0  0  0  0  0  0
   19.0040   12.0090   41.5100 H   0  0  0  0  0  0  0  0  0  0  0  0
   15.9295    9.0956   42.8787 H   0  0  0  0  0  0  0  0  0  0  0  0
   12.7245   10.0053   41.6567 H   0  0  0  0  0  0  0  0  0  0  0  0
   13.5869    8.9366   40.4705 H   0  0  0  0  0  0  0  0  0  0  0  0
   14.1940    7.4970   42.0870 H   0  0  0  0  0  0  0  0  0  0  0  0
   14.3120    8.6360   43.2510 H   0  0  0  0  0  0  0  0  0  0  0  0
   11.5616    8.0546   42.3865 H   0  0  0  0  0  0  0  0  0  0  0  0
   12.3568    7.9944   45.2344 H   0  0  0  0  0  0  0  0  0  0  0  0
   12.8710    9.5012   44.4026 H   0  0  0  0  0  0  0  0  0  0  0  0
   11.1400    9.0211   44.4026 H   0  0  0  0  0  0  0  0  0  0  0  0
   12.4344    6.1884   44.4356 H   0  0  0  0  0  0  0  0  0  0  0  0
   11.5433    5.8914   42.9044 H   0  0  0  0  0  0  0  0  0  0  0  0
   13.3390    5.9358   42.9044 H   0  0  0  0  0  0  0  0  0  0  0  0
   14.0354   11.7573   40.1805 H   0  0  0  0  0  0  0  0  0  0  0  0
   18.2887   14.4373   43.8077 H   0  0  0  0  0  0  0  0  0  0  0  0
   19.1347   18.1235   41.1627 H   0  0  0  0  0  0  0  0  0  0  0  0
   19.8743   17.2165   39.7999 H   0  0  0  0  0  0  0  0  0  0  0  0
   18.1106   17.5571   39.7999 H   0  0  0  0  0  0  0  0  0  0  0  0
  1  2  1  0
  2  3  2  0
  3  4  1  0
  4  5  1  0
  5  6  2  0
  6  7  1  0
  7  8  2  0
  8  9  1  0
  9 10  1  0
 10 11  1  0
 11 12  1  0
 11 13  1  0
  8 14  1  0
 14 15  2  0
  3 16  1  0
 16 17  2  0
 17 18  1  0
 18 19  1  0
 18  2  1  0
 15  5  1  0
  1 20  1  0
  1 21  1  0
  1 22  1  0
  4 23  1  0
  7 24  1  0
  9 25  1  0
  9 26  1  0
 10 27  1  0
 10 28  1  0
 11 29  1  0
 12 30  1  0
 12 31  1  0
 12 32  1  0
 13 33  1  0
 13 34  1  0
 13 35  1  0
 14 36  1  0
 16 37  1  0
 19 38  1  0
 19 39  1  0
 19 40  1  0
M  CHG  1  10   1
M  END
>  <meeko>  (67) 
{"is_sidechain": false}

>  <vina_energy>  (67) 
-6.06

$$$$

     RDKit          3D

 40 41  0  0  0  0  0  0  0  0999 V2000
   10.3560    4.3060   45.1900 C   0  0  0  0  0  0  0  0  0  0  0  0
    9.2080    5.2470   44.8460 C   0  0  0  0  0  0  0  0  0  0  0  0
    9.4330    6.7240   45.1970 C   0  0  1  0  0  0  0  0  0  0  0  0
    8.4580    7.1360   46.2560 N   0  0  0  0  0  0  0  0  0  0  0  0
   10.8790    7.0390   45.6380 C   0  0  0  0  0  0  0  0  0  0  0  0
   11.7210    7.5490   44.5080 C   0  0  0  0  0  0  0  0  0  0  0  0
   11.9230    8.8920   44.2840 C   0  0  0  0  0  0  0  0  0  0  0  0
   12.5630    9.3750   43.2090 N   0  0  0  0  0  0  0  0  0  0  0  0
   13.0920    8.4980   42.3410 C   0  0  0  0  0  0  0  0  0  0  0  0
   13.7740    8.9190   41.2020 N   0  0  0  0  0  0  0  0  0  0  0  0
   14.2450   10.1330   40.8520 C   0  0  0  0  0  0  0  0  0  0  0  0
   13.7360   11.0630   39.9260 C   0  0  0  0  0  0  0  0  0  0  0  0
   14.4910   12.1600   39.8380 N   0  0  0  0  0  0  0  0  0  0  0  0
   15.4730   11.9420   40.7320 N   0  0  0  0  0  0  0  0  0  0  0  0
   16.4860   12.9550   40.9250 C   0  0  0  0  0  0  0  0  0  0  0  0
   15.3820   10.7230   41.3650 C   0  0  0  0  0  0  0  0  0  0  0  0
   16.3710   10.2730   42.3760 C   0  0  0  0  0  0  0  0  0  0  0  0
   12.9730    7.1700   42.4970 N   0  0  0  0  0  0  0  0  0  0  0  0
   12.3100    6.7210   43.5760 C   0  0  0  0  0  0  0  0  0  0  0  0
   10.4512    4.2280   46.2831 H   0  0  0  0  0  0  0  0  0  0  0  0
   10.1534    3.3107   44.7676 H   0  0  0  0  0  0  0  0  0  0  0  0
   11.2922    4.7000   44.7676 H   0  0  0  0  0  0  0  0  0  0  0  0
    9.0287    5.1801   43.7628 H   0  0  0  0  0  0  0  0  0  0  0  0
    8.3558    4.9186   45.4591 H   0  0  0  0  0  0  0  0  0  0  0  0
    9.2663    7.3051   44.2780 H   0  0  0  0  0  0  0  0  0  0  0  0
    8.1500    6.3300   46.8190 H   0  0  0  0  0  0  0  0  0  0  0  0
    8.8410    7.8330   46.9100 H   0  0  0  0  0  0  0  0  0  0  0  0
    7.6020    7.5440   45.8480 H   0  0  0  0  0  0  0  0  0  0  0  0
   10.8489    7.8027   46.4291 H   0  0  0  0  0  0  0  0  0  0  0  0
   11.3316    6.1036   45.9988 H   0  0  0  0  0  0  0  0  0  0  0  0
   11.5390    9.6072   45.0263 H   0  0  0  0  0  0  0  0  0  0  0  0
   13.9190    8.1140   40.6060 H   0  0  0  0  0  0  0  0  0  0  0  0
   12.8186   10.9034   39.3404 H   0  0  0  0  0  0  0  0  0  0  0  0
   16.6450   13.1140   42.0018 H   0  0  0  0  0  0  0  0  0  0  0  0
   17.4270   12.6258   40.4601 H   0  0  0  0  0  0  0  0  0  0  0  0
   16.1568   13.8960   40.4601 H   0  0  0  0  0  0  0  0  0  0  0  0
   15.9723   10.4544   43.3850 H   0  0  0  0  0  0  0  0  0  0  0  0
   16.5649    9.1980   42.2461 H   0  0  0  0  0  0  0  0  0  0  0  0
   17.3088   10.8330   42.2461 H   0  0  0  0  0  0  0  0  0  0  0  0
   12.2329    5.6337   43.7238 H   0  0  0  0  0  0  0  0  0  0  0  0
  1  2  1  0
  2  3  1  0
  3  4  1  0
  3  5  1  0
  5  6  1  0
  6  7  2  0
  7  8  1  0
  8  9  2  0
  9 10  1  0
 10 11  1  0
 11 12  1  0
 12 13  2  0
 13 14  1  0
 14 15  1  0
 14 16  1  0
 16 17  1  0
  9 18  1  0
 18 19  2  0
 19  6  1  0
 16 11  2  0
  1 20  1  0
  1 21  1  0
  1 22  1  0
  2 23  1  0
  2 24  1  0
  3 25  1  6
  4 26  1  0
  4 27  1  0
  4 28  1  0
  5 29  1  0
  5 30  1  0
  7 31  1  0
 10 32  1  0
 12 33  1  0
 15 34  1  0
 15 35  1  0
 15 36  1  0
 17 37  1  0
 17 38  1  0
 17 39  1  0
 19 40  1  0
M  CHG  1   4   1
M  END
>  <meeko>  (68) 
{"is_sidechain": false}

>  <vina_energy>  (68) 
-6.68

$$$$

     RDKit          3D

 46 47  0  0  0  0  0  0  0  0999 V2000
   10.9220    6.9240   44.0990 C   0  0  0  0  0  0  0  0  0  0  0  0
   12.2520    6.5530   43.4610 C   0  0  0  0  0  0  0  0  0  0  0  0
   13.1060    7.7520   43.0620 C   0  0  0  0  0  0  0  0  0  0  0  0
   12.2520    8.9040   42.6200 N   0  0  0  0  0  0  0  0  0  0  0  0
   12.8010    9.7850   41.5200 C   0  0  2  0  0  0  0  0  0  0  0  0
   11.8880    9.6230   40.3060 C   0  0  0  0  0  0  0  0  0  0  0  0
   14.2890    9.4850   41.2050 C   0  0  0  0  0  0  0  0  0  0  0  0
   15.2080   10.6660   41.2690 C   0  0  0  0  0  0  0  0  0  0  0  0
   14.9720   11.8470   40.6020 C   0  0  0  0  0  0  0  0  0  0  0  0
   15.8430   12.8720   40.5720 N   0  0  0  0  0  0  0  0  0  0  0  0
   16.9880   12.7420   41.2610 C   0  0  0  0  0  0  0  0  0  0  0  0
   17.8690   13.8190   41.1870 N   0  0  0  0  0  0  0  0  0  0  0  0
   18.7840   14.2750   42.0670 C   0  0  0  0  0  0  0  0  0  0  0  0
   18.6340   15.1870   43.1300 C   0  0  0  0  0  0  0  0  0  0  0  0
   19.7730   15.3840   43.7960 N   0  0  0  0  0  0  0  0  0  0  0  0
   20.6620   14.6150   43.1390 N   0  0  0  0  0  0  0  0  0  0  0  0
   22.0380   14.5970   43.5820 C   0  0  0  0  0  0  0  0  0  0  0  0
   20.1140   13.9080   42.0940 C   0  0  0  0  0  0  0  0  0  0  0  0
   20.9110   12.9850   41.2480 C   0  0  0  0  0  0  0  0  0  0  0  0
   17.2880   11.6350   41.9580 N   0  0  0  0  0  0  0  0  0  0  0  0
   16.3870   10.6420   41.9810 C   0  0  0  0  0  0  0  0  0  0  0  0
   11.0204    6.8966   45.1942 H   0  0  0  0  0  0  0  0  0  0  0  0
   10.6332    7.9370   43.7821 H   0  0  0  0  0  0  0  0  0  0  0  0
   10.1506    6.2068   43.7821 H   0  0  0  0  0  0  0  0  0  0  0  0
   12.8226    5.9460   44.1793 H   0  0  0  0  0  0  0  0  0  0  0  0
   12.0188    6.0069   42.5350 H   0  0  0  0  0  0  0  0  0  0  0  0
   13.7111    8.0647   43.9257 H   0  0  0  0  0  0  0  0  0  0  0  0
   13.7520    7.4554   42.2226 H   0  0  0  0  0  0  0  0  0  0  0  0
   11.3260    8.5420   42.3380 H   0  0  0  0  0  0  0  0  0  0  0  0
   12.0390    9.4850   43.4440 H   0  0  0  0  0  0  0  0  0  0  0  0
   12.8020   10.8366   41.8426 H   0  0  0  0  0  0  0  0  0  0  0  0
   10.8574    9.4401   40.6441 H   0  0  0  0  0  0  0  0  0  0  0  0
   11.9177   10.5404   39.6999 H   0  0  0  0  0  0  0  0  0  0  0  0
   12.2315    8.7718   39.6999 H   0  0  0  0  0  0  0  0  0  0  0  0
   14.6455    8.7375   41.9290 H   0  0  0  0  0  0  0  0  0  0  0  0
   14.3146    9.1361   40.1621 H   0  0  0  0  0  0  0  0  0  0  0  0
   14.0190   11.9587   40.0641 H   0  0  0  0  0  0  0  0  0  0  0  0
   17.7140   14.2930   40.3060 H   0  0  0  0  0  0  0  0  0  0  0  0
   17.6843   15.6813   43.3826 H   0  0  0  0  0  0  0  0  0  0  0  0
   22.0692   14.5966   44.6816 H   0  0  0  0  0  0  0  0  0  0  0  0
   22.5341   13.6923   43.2008 H   0  0  0  0  0  0  0  0  0  0  0  0
   22.5576   15.4884   43.2008 H   0  0  0  0  0  0  0  0  0  0  0  0
   21.4942   12.3096   41.8911 H   0  0  0  0  0  0  0  0  0  0  0  0
   20.2349   12.3937   40.6129 H   0  0  0  0  0  0  0  0  0  0  0  0
   21.5945   13.5677   40.6129 H   0  0  0  0  0  0  0  0  0  0  0  0
   16.6011    9.7600   42.6025 H   0  0  0  0  0  0  0  0  0  0  0  0
  1  2  1  0
  2  3  1  0
  3  4  1  0
  4  5  1  0
  5  6  1  0
  5  7  1  0
  7  8  1  0
  8  9  2  0
  9 10  1  0
 10 11  2  0
 11 12  1  0
 12 13  1  0
 13 14  1  0
 14 15  2  0
 15 16  1  0
 16 17  1  0
 16 18  1  0
 18 19  1  0
 11 20  1  0
 20 21  2  0
 21  8  1  0
 18 13  2  0
  1 22  1  0
  1 23  1  0
  1 24  1  0
  2 25  1  0
  2 26  1  0
  3 27  1  0
  3 28  1  0
  4 29  1  0
  4 30  1  0
  5 31  1  1
  6 32  1  0
  6 33  1  0
  6 34  1  0
  7 35  1  0
  7 36  1  0
  9 37  1  0
 12 38  1  0
 14 39  1  0
 17 40  1  0
 17 41  1  0
 17 42  1  0
 19 43  1  0
 19 44  1  0
 19 45  1  0
 21 46  1  0
M  CHG  1   4   1
M  END
>  <meeko>  (69) 
{"is_sidechain": false}

>  <vina_energy>  (69) 
-6.10

$$$$

     RDKit          3D

 41 42  0  0  0  0  0  0  0  0999 V2000
   11.9880    5.2180   43.5870 C   0  0  0  0  0  0  0  0  0  0  0  0
   11.4280    6.4620   44.1720 C   0  0  0  0  0  0  0  0  0  0  0  0
   11.8970    7.7600   44.1890 C   0  0  0  0  0  0  0  0  0  0  0  0
   13.0440    8.1760   43.6220 N   0  0  0  0  0  0  0  0  0  0  0  0
   13.2790    8.9950   42.5170 C   0  0  0  0  0  0  0  0  0  0  0  0
   14.5100    9.5250   42.4480 N   0  0  0  0  0  0  0  0  0  0  0  0
   14.7880   10.3130   41.3890 C   0  0  0  0  0  0  0  0  0  0  0  0
   13.8840   10.6000   40.3910 C   0  0  0  0  0  0  0  0  0  0  0  0
   14.2190   11.4680   39.2200 C   0  0  0  0  0  0  0  0  0  0  0  0
   14.8660   12.7720   39.6450 C   0  0  0  0  0  0  0  0  0  0  0  0
   14.2600   13.6130   40.3040 O   0  0  0  0  0  0  0  0  0  0  0  0
   16.1820   12.9060   39.2510 N   0  0  0  0  0  0  0  0  0  0  0  0
   16.9980   14.0250   39.7030 C   0  0  0  0  0  0  0  0  0  0  0  0
   17.8390   14.5580   38.5470 C   0  0  0  0  0  0  0  0  0  0  0  0
   17.8880   13.6030   40.8710 C   0  0  0  0  0  0  0  0  0  0  0  0
   12.6490   10.0200   40.5590 C   0  0  0  0  0  0  0  0  0  0  0  0
   12.3290    9.2220   41.5960 N   0  0  0  0  0  0  0  0  0  0  0  0
   10.9260    8.4900   44.9060 C   0  0  0  0  0  0  0  0  0  0  0  0
    9.9080    7.7240   45.3090 N   0  0  0  0  0  0  0  0  0  0  0  0
   10.2290    6.5030   44.8430 N   0  0  0  0  0  0  0  0  0  0  0  0
    9.3260    5.4030   45.0950 C   0  0  0  0  0  0  0  0  0  0  0  0
   12.2941    4.5380   44.3957 H   0  0  0  0  0  0  0  0  0  0  0  0
   11.2235    4.7284   42.9659 H   0  0  0  0  0  0  0  0  0  0  0  0
   12.8614    5.4657   42.9659 H   0  0  0  0  0  0  0  0  0  0  0  0
   13.9450    7.8750   43.9670 H   0  0  0  0  0  0  0  0  0  0  0  0
   15.7945   10.7513   41.3188 H   0  0  0  0  0  0  0  0  0  0  0  0
   14.9138   10.9247   38.5627 H   0  0  0  0  0  0  0  0  0  0  0  0
   13.2818   11.7088   38.6969 H   0  0  0  0  0  0  0  0  0  0  0  0
   16.6720   12.0740   38.9450 H   0  0  0  0  0  0  0  0  0  0  0  0
   16.3344   14.8290   40.0541 H   0  0  0  0  0  0  0  0  0  0  0  0
   18.7048   15.1067   38.9460 H   0  0  0  0  0  0  0  0  0  0  0  0
   18.1900   13.7172   37.9308 H   0  0  0  0  0  0  0  0  0  0  0  0
   17.2285   15.2344   37.9308 H   0  0  0  0  0  0  0  0  0  0  0  0
   17.3852   13.8414   41.8199 H   0  0  0  0  0  0  0  0  0  0  0  0
   18.0750   12.5204   40.8170 H   0  0  0  0  0  0  0  0  0  0  0  0
   18.8446   14.1434   40.8170 H   0  0  0  0  0  0  0  0  0  0  0  0
   11.8764   10.2193   39.8018 H   0  0  0  0  0  0  0  0  0  0  0  0
   10.9987    9.5684   45.1103 H   0  0  0  0  0  0  0  0  0  0  0  0
    9.2117    5.2637   46.1801 H   0  0  0  0  0  0  0  0  0  0  0  0
    8.3453    5.6239   44.6483 H   0  0  0  0  0  0  0  0  0  0  0  0
    9.7337    4.4842   44.6483 H   0  0  0  0  0  0  0  0  0  0  0  0
  1  2  1  0
  2  3  2  0
  3  4  1  0
  4  5  1  0
  5  6  2  0
  6  7  1  0
  7  8  2  0
  8  9  1  0
  9 10  1  0
 10 11  2  0
 10 12  1  0
 12 13  1  0
 13 14  1  0
 13 15  1  0
  8 16  1  0
 16 17  2  0
  3 18  1  0
 18 19  2  0
 19 20  1  0
 20 21  1  0
 20  2  1  0
 17  5  1  0
  1 22  1  0
  1 23  1  0
  1 24  1  0
  4 25  1  0
  7 26  1  0
  9 27  1  0
  9 28  1  0
 12 29  1  0
 13 30  1  0
 14 31  1  0
 14 32  1  0
 14 33  1  0
 15 34  1  0
 15 35  1  0
 15 36  1  0
 16 37  1  0
 18 38  1  0
 21 39  1  0
 21 40  1  0
 21 41  1  0
M  END
>  <meeko>  (70) 
{"is_sidechain": false}

>  <vina_energy>  (70) 
-6.25

$$$$

     RDKit          3D

 41 42  0  0  0  0  0  0  0  0999 V2000
   10.5560    6.8640   44.1970 C   0  0  0  0  0  0  0  0  0  0  0  0
   11.7520    6.1160   43.6300 C   0  0  0  0  0  0  0  0  0  0  0  0
   13.0540    6.8830   43.8690 C   0  0  0  0  0  0  0  0  0  0  0  0
   13.5210    7.5420   42.6650 N   0  0  0  0  0  0  0  0  0  0  0  0
   13.1900    8.8500   42.3810 C   0  0  0  0  0  0  0  0  0  0  0  0
   12.4890    9.5440   43.1140 O   0  0  0  0  0  0  0  0  0  0  0  0
   13.7720    9.3860   41.0840 C   0  0  0  0  0  0  0  0  0  0  0  0
   14.7900   10.4580   41.3230 C   0  0  0  0  0  0  0  0  0  0  0  0
   14.6870   11.7160   40.7680 C   0  0  0  0  0  0  0  0  0  0  0  0
   15.5850   12.7020   40.9740 N   0  0  0  0  0  0  0  0  0  0  0  0
   16.6200   12.4320   41.7860 C   0  0  0  0  0  0  0  0  0  0  0  0
   17.5120   13.4900   41.9750 N   0  0  0  0  0  0  0  0  0  0  0  0
   18.6750   13.7940   41.3670 C   0  0  0  0  0  0  0  0  0  0  0  0
   20.0020   13.5840   41.7980 C   0  0  0  0  0  0  0  0  0  0  0  0
   20.9010   14.0310   40.9130 N   0  0  0  0  0  0  0  0  0  0  0  0
   20.1440   14.5280   39.9170 N   0  0  0  0  0  0  0  0  0  0  0  0
   20.7920   15.1060   38.7620 C   0  0  0  0  0  0  0  0  0  0  0  0
   18.7900   14.4090   40.1370 C   0  0  0  0  0  0  0  0  0  0  0  0
   17.7740   14.8910   39.1670 C   0  0  0  0  0  0  0  0  0  0  0  0
   16.7990   11.2420   42.3830 N   0  0  0  0  0  0  0  0  0  0  0  0
   15.8810   10.2850   42.1420 C   0  0  0  0  0  0  0  0  0  0  0  0
   10.5955    6.8393   45.2960 H   0  0  0  0  0  0  0  0  0  0  0  0
   10.5798    7.9084   43.8526 H   0  0  0  0  0  0  0  0  0  0  0  0
    9.6273    6.3855   43.8526 H   0  0  0  0  0  0  0  0  0  0  0  0
   11.8219    5.1317   44.1161 H   0  0  0  0  0  0  0  0  0  0  0  0
   11.6090    6.0059   42.5449 H   0  0  0  0  0  0  0  0  0  0  0  0
   12.8822    7.6421   44.6463 H   0  0  0  0  0  0  0  0  0  0  0  0
   13.8225    6.1614   44.1831 H   0  0  0  0  0  0  0  0  0  0  0  0
   14.0170    6.9850   41.9820 H   0  0  0  0  0  0  0  0  0  0  0  0
   14.2503    8.5576   40.5410 H   0  0  0  0  0  0  0  0  0  0  0  0
   12.9496    9.8246   40.4998 H   0  0  0  0  0  0  0  0  0  0  0  0
   13.8235   11.9280   40.1203 H   0  0  0  0  0  0  0  0  0  0  0  0
   17.1460   14.0510   42.7340 H   0  0  0  0  0  0  0  0  0  0  0  0
   20.2675   13.1070   42.7530 H   0  0  0  0  0  0  0  0  0  0  0  0
   21.5750   15.8045   39.0921 H   0  0  0  0  0  0  0  0  0  0  0  0
   21.2450   14.3065   38.1573 H   0  0  0  0  0  0  0  0  0  0  0  0
   20.0493   15.6470   38.1573 H   0  0  0  0  0  0  0  0  0  0  0  0
   16.9111   15.3003   39.7128 H   0  0  0  0  0  0  0  0  0  0  0  0
   18.2141   15.6763   38.5349 H   0  0  0  0  0  0  0  0  0  0  0  0
   17.4442   14.0534   38.5349 H   0  0  0  0  0  0  0  0  0  0  0  0
   16.0123    9.3076   42.6293 H   0  0  0  0  0  0  0  0  0  0  0  0
  1  2  1  0
  2  3  1  0
  3  4  1  0
  4  5  1  0
  5  6  2  0
  5  7  1  0
  7  8  1  0
  8  9  2  0
  9 10  1  0
 10 11  2  0
 11 12  1  0
 12 13  1  0
 13 14  1  0
 14 15  2  0
 15 16  1  0
 16 17  1  0
 16 18  1  0
 18 19  1  0
 11 20  1  0
 20 21  2  0
 21  8  1  0
 18 13  2  0
  1 22  1  0
  1 23  1  0
  1 24  1  0
  2 25  1  0
  2 26  1  0
  3 27  1  0
  3 28  1  0
  4 29  1  0
  7 30  1  0
  7 31  1  0
  9 32  1  0
 12 33  1  0
 14 34  1  0
 17 35  1  0
 17 36  1  0
 17 37  1  0
 19 38  1  0
 19 39  1  0
 19 40  1  0
 21 41  1  0
M  END
>  <meeko>  (71) 
{"is_sidechain": false}

>  <vina_energy>  (71) 
-6.50

$$$$

     RDKit          3D

 38 39  0  0  0  0  0  0  0  0999 V2000
   14.7070   12.5970   39.9750 C   0  0  0  0  0  0  0  0  0  0  0  0
   15.4140   11.7350   40.9540 C   0  0  0  0  0  0  0  0  0  0  0  0
   15.0610   10.5490   41.5650 C   0  0  0  0  0  0  0  0  0  0  0  0
   13.9030    9.8900   41.3690 N   0  0  0  0  0  0  0  0  0  0  0  0
   13.2480    8.9310   42.1440 C   0  0  0  0  0  0  0  0  0  0  0  0
   12.8160    9.3630   43.3410 N   0  0  0  0  0  0  0  0  0  0  0  0
   12.1790    8.4690   44.1250 C   0  0  0  0  0  0  0  0  0  0  0  0
   11.9500    7.1590   43.7680 C   0  0  0  0  0  0  0  0  0  0  0  0
   11.2380    6.1820   44.6580 C   0  0  0  0  0  0  0  0  0  0  0  0
    9.7170    6.4160   44.8200 C   0  0  0  0  0  0  0  0  0  0  0  0
    9.3760    7.2510   46.0580 C   0  0  0  0  0  0  0  0  0  0  0  0
    9.0020    5.0610   44.8950 C   0  0  0  0  0  0  0  0  0  0  0  0
    9.2250    7.0890   43.6560 O   0  0  0  0  0  0  0  0  0  0  0  0
   12.4290    6.8200   42.5230 C   0  0  0  0  0  0  0  0  0  0  0  0
   13.0730    7.6740   41.7060 N   0  0  0  0  0  0  0  0  0  0  0  0
   16.1530   10.2260   42.3960 C   0  0  0  0  0  0  0  0  0  0  0  0
   17.1330   11.1310   42.3230 N   0  0  0  0  0  0  0  0  0  0  0  0
   16.6650   12.0320   41.4390 N   0  0  0  0  0  0  0  0  0  0  0  0
   17.4810   13.1770   41.1060 C   0  0  0  0  0  0  0  0  0  0  0  0
   14.0983   13.3391   40.5123 H   0  0  0  0  0  0  0  0  0  0  0  0
   15.4437   13.1150   39.3434 H   0  0  0  0  0  0  0  0  0  0  0  0
   14.0548   11.9759   39.3434 H   0  0  0  0  0  0  0  0  0  0  0  0
   13.3330   10.0480   40.5490 H   0  0  0  0  0  0  0  0  0  0  0  0
   11.8210    8.8068   45.1087 H   0  0  0  0  0  0  0  0  0  0  0  0
   11.3836    5.1747   44.2406 H   0  0  0  0  0  0  0  0  0  0  0  0
   11.6726    6.3133   45.6599 H   0  0  0  0  0  0  0  0  0  0  0  0
    9.6113    6.6749   46.9650 H   0  0  0  0  0  0  0  0  0  0  0  0
    9.9674    8.1785   46.0490 H   0  0  0  0  0  0  0  0  0  0  0  0
    8.3044    7.4993   46.0490 H   0  0  0  0  0  0  0  0  0  0  0  0
    8.8548    4.7820   45.9488 H   0  0  0  0  0  0  0  0  0  0  0  0
    8.0249    5.1338   44.3950 H   0  0  0  0  0  0  0  0  0  0  0  0
    9.6136    4.2955   44.3950 H   0  0  0  0  0  0  0  0  0  0  0  0
    9.6860    6.7250   42.8790 H   0  0  0  0  0  0  0  0  0  0  0  0
   12.2761    5.7880   42.1744 H   0  0  0  0  0  0  0  0  0  0  0  0
   16.1936    9.3299   43.0327 H   0  0  0  0  0  0  0  0  0  0  0  0
   17.8268   13.6622   42.0307 H   0  0  0  0  0  0  0  0  0  0  0  0
   18.3501   12.8490   40.5169 H   0  0  0  0  0  0  0  0  0  0  0  0
   16.8873   13.8915   40.5169 H   0  0  0  0  0  0  0  0  0  0  0  0
  1  2  1  0
  2  3  2  0
  3  4  1  0
  4  5  1  0
  5  6  2  0
  6  7  1  0
  7  8  2  0
  8  9  1  0
  9 10  1  0
 10 11  1  0
 10 12  1  0
 10 13  1  0
  8 14  1  0
 14 15  2  0
  3 16  1  0
 16 17  2  0
 17 18  1  0
 18 19  1  0
 18  2  1  0
 15  5  1  0
  1 20  1  0
  1 21  1  0
  1 22  1  0
  4 23  1  0
  7 24  1  0
  9 25  1  0
  9 26  1  0
 11 27  1  0
 11 28  1  0
 11 29  1  0
 12 30  1  0
 12 31  1  0
 12 32  1  0
 13 33  1  0
 14 34  1  0
 16 35  1  0
 19 36  1  0
 19 37  1  0
 19 38  1  0
M  END
>  <meeko>  (72) 
{"is_sidechain": false}

>  <vina_energy>  (72) 
-6.65

$$$$

     RDKit          3D

 36 37  0  0  0  0  0  0  0  0999 V2000
   10.5050    4.5990   45.1300 C   0  0  0  0  0  0  0  0  0  0  0  0
   10.1190    6.0570   45.2720 C   0  0  0  0  0  0  0  0  0  0  0  0
   10.6720    6.8770   44.1250 C   0  0  0  0  0  0  0  0  0  0  0  0
   10.0910    7.8870   43.7240 O   0  0  0  0  0  0  0  0  0  0  0  0
   11.9670    6.4150   43.4870 C   0  0  0  0  0  0  0  0  0  0  0  0
   12.6660    7.5140   42.7540 C   0  0  0  0  0  0  0  0  0  0  0  0
   12.6270    7.6410   41.3860 C   0  0  0  0  0  0  0  0  0  0  0  0
   13.2530    8.6200   40.7040 N   0  0  0  0  0  0  0  0  0  0  0  0
   13.9460    9.5230   41.4180 C   0  0  0  0  0  0  0  0  0  0  0  0
   14.5760   10.5170   40.6700 N   0  0  0  0  0  0  0  0  0  0  0  0
   15.6700   11.2610   40.9260 C   0  0  0  0  0  0  0  0  0  0  0  0
   16.7630   10.9950   41.7740 C   0  0  0  0  0  0  0  0  0  0  0  0
   17.6640   11.9810   41.7670 N   0  0  0  0  0  0  0  0  0  0  0  0
   17.1420   12.8810   40.9140 N   0  0  0  0  0  0  0  0  0  0  0  0
   17.8640   14.1050   40.6570 C   0  0  0  0  0  0  0  0  0  0  0  0
   15.9400   12.4950   40.3700 C   0  0  0  0  0  0  0  0  0  0  0  0
   15.1930   13.3330   39.3990 C   0  0  0  0  0  0  0  0  0  0  0  0
   14.0370    9.4850   42.7560 N   0  0  0  0  0  0  0  0  0  0  0  0
   13.3970    8.4890   43.3970 C   0  0  0  0  0  0  0  0  0  0  0  0
   10.6233    4.1521   46.1282 H   0  0  0  0  0  0  0  0  0  0  0  0
    9.7178    4.0632   44.5794 H   0  0  0  0  0  0  0  0  0  0  0  0
   11.4542    4.5230   44.5794 H   0  0  0  0  0  0  0  0  0  0  0  0
    9.0222    6.1402   45.2781 H   0  0  0  0  0  0  0  0  0  0  0  0
   10.5389    6.4415   46.2132 H   0  0  0  0  0  0  0  0  0  0  0  0
   12.6339    6.0368   44.2758 H   0  0  0  0  0  0  0  0  0  0  0  0
   11.7194    5.6302   42.7571 H   0  0  0  0  0  0  0  0  0  0  0  0
   12.0504    6.8992   40.8139 H   0  0  0  0  0  0  0  0  0  0  0  0
   14.0500   10.6290   39.8130 H   0  0  0  0  0  0  0  0  0  0  0  0
   16.8632   10.0786   42.3742 H   0  0  0  0  0  0  0  0  0  0  0  0
   18.1411   14.5747   41.6123 H   0  0  0  0  0  0  0  0  0  0  0  0
   18.7740   13.8800   40.0815 H   0  0  0  0  0  0  0  0  0  0  0  0
   17.2268   14.7926   40.0815 H   0  0  0  0  0  0  0  0  0  0  0  0
   14.5570   14.0465   39.9435 H   0  0  0  0  0  0  0  0  0  0  0  0
   15.9046   13.8844   38.7669 H   0  0  0  0  0  0  0  0  0  0  0  0
   14.5637   12.6892   38.7669 H   0  0  0  0  0  0  0  0  0  0  0  0
   13.4612    8.4515   44.4945 H   0  0  0  0  0  0  0  0  0  0  0  0
  1  2  1  0
  2  3  1  0
  3  4  2  0
  3  5  1  0
  5  6  1  0
  6  7  2  0
  7  8  1  0
  8  9  2  0
  9 10  1  0
 10 11  1  0
 11 12  1  0
 12 13  2  0
 13 14  1  0
 14 15  1  0
 14 16  1  0
 16 17  1  0
  9 18  1  0
 18 19  2  0
 19  6  1  0
 16 11  2  0
  1 20  1  0
  1 21  1  0
  1 22  1  0
  2 23  1  0
  2 24  1  0
  5 25  1  0
  5 26  1  0
  7 27  1  0
 10 28  1  0
 12 29  1  0
 15 30  1  0
 15 31  1  0
 15 32  1  0
 17 33  1  0
 17 34  1  0
 17 35  1  0
 19 36  1  0
M  END
>  <meeko>  (73) 
{"is_sidechain": false}

>  <vina_energy>  (73) 
-6.86

$$$$

     RDKit          3D

 41 42  0  0  0  0  0  0  0  0999 V2000
   15.2080   13.3920   39.3990 C   0  0  0  0  0  0  0  0  0  0  0  0
   15.9560   12.5320   40.3490 C   0  0  0  0  0  0  0  0  0  0  0  0
   15.6770   11.2940   40.8920 C   0  0  0  0  0  0  0  0  0  0  0  0
   14.5700   10.5690   40.6400 N   0  0  0  0  0  0  0  0  0  0  0  0
   13.9260    9.5830   41.3910 C   0  0  0  0  0  0  0  0  0  0  0  0
   13.9600    9.5880   42.7320 N   0  0  0  0  0  0  0  0  0  0  0  0
   13.3090    8.5940   43.3690 C   0  0  0  0  0  0  0  0  0  0  0  0
   12.6100    7.5960   42.7270 C   0  0  0  0  0  0  0  0  0  0  0  0
   11.8750    6.5190   43.4640 C   0  0  0  0  0  0  0  0  0  0  0  0
   10.4140    6.8440   43.8130 C   0  0  0  0  0  0  0  0  0  0  0  0
    9.8610    6.2230   45.1160 C   0  0  0  0  0  0  0  0  0  0  0  0
    9.8120    7.2280   46.2680 C   0  0  0  0  0  0  0  0  0  0  0  0
   10.7290    5.0210   45.5110 C   0  0  0  0  0  0  0  0  0  0  0  0
    8.5380    5.7500   44.8790 O   0  0  0  0  0  0  0  0  0  0  0  0
   12.6420    7.6800   41.3540 C   0  0  0  0  0  0  0  0  0  0  0  0
   13.2760    8.6540   40.6690 N   0  0  0  0  0  0  0  0  0  0  0  0
   16.7770   11.0030   41.7230 C   0  0  0  0  0  0  0  0  0  0  0  0
   17.6910   11.9770   41.7180 N   0  0  0  0  0  0  0  0  0  0  0  0
   17.1700   12.8940   40.8830 N   0  0  0  0  0  0  0  0  0  0  0  0
   17.9050   14.1120   40.6330 C   0  0  0  0  0  0  0  0  0  0  0  0
   14.5874   14.1055   39.9609 H   0  0  0  0  0  0  0  0  0  0  0  0
   15.9187   13.9434   38.7659 H   0  0  0  0  0  0  0  0  0  0  0  0
   14.5634   12.7646   38.7659 H   0  0  0  0  0  0  0  0  0  0  0  0
   14.0460   10.6780   39.7830 H   0  0  0  0  0  0  0  0  0  0  0  0
   13.3379    8.5792   44.4685 H   0  0  0  0  0  0  0  0  0  0  0  0
   11.8822    5.6136   42.8394 H   0  0  0  0  0  0  0  0  0  0  0  0
   12.3976    6.3952   44.4240 H   0  0  0  0  0  0  0  0  0  0  0  0
   10.3266    7.9370   43.9005 H   0  0  0  0  0  0  0  0  0  0  0  0
    9.8160    6.4009   43.0030 H   0  0  0  0  0  0  0  0  0  0  0  0
    9.8383    6.6887   47.2264 H   0  0  0  0  0  0  0  0  0  0  0  0
   10.6783    7.9027   46.2030 H   0  0  0  0  0  0  0  0  0  0  0  0
    8.8842    7.8153   46.2030 H   0  0  0  0  0  0  0  0  0  0  0  0
   10.7801    4.9502   46.6075 H   0  0  0  0  0  0  0  0  0  0  0  0
   10.2864    4.0997   45.1043 H   0  0  0  0  0  0  0  0  0  0  0  0
   11.7427    5.1513   45.1043 H   0  0  0  0  0  0  0  0  0  0  0  0
    7.9080    6.4360   45.1590 H   0  0  0  0  0  0  0  0  0  0  0  0
   12.1172    6.9035   40.7782 H   0  0  0  0  0  0  0  0  0  0  0  0
   16.8724   10.0776   42.3100 H   0  0  0  0  0  0  0  0  0  0  0  0
   18.1843   14.5749   41.5910 H   0  0  0  0  0  0  0  0  0  0  0  0
   18.8142   13.8803   40.0588 H   0  0  0  0  0  0  0  0  0  0  0  0
   17.2762   14.8084   40.0588 H   0  0  0  0  0  0  0  0  0  0  0  0
  1  2  1  0
  2  3  2  0
  3  4  1  0
  4  5  1  0
  5  6  2  0
  6  7  1  0
  7  8  2  0
  8  9  1  0
  9 10  1  0
 10 11  1  0
 11 12  1  0
 11 13  1  0
 11 14  1  0
  8 15  1  0
 15 16  2  0
  3 17  1  0
 17 18  2  0
 18 19  1  0
 19 20  1  0
 19  2  1  0
 16  5  1  0
  1 21  1  0
  1 22  1  0
  1 23  1  0
  4 24  1  0
  7 25  1  0
  9 26  1  0
  9 27  1  0
 10 28  1  0
 10 29  1  0
 12 30  1  0
 12 31  1  0
 12 32  1  0
 13 33  1  0
 13 34  1  0
 13 35  1  0
 14 36  1  0
 15 37  1  0
 17 38  1  0
 20 39  1  0
 20 40  1  0
 20 41  1  0
M  END
>  <meeko>  (74) 
{"is_sidechain": false}

>  <vina_energy>  (74) 
-6.58

$$$$

     RDKit          3D

 39 40  0  0  0  0  0  0  0  0999 V2000
   10.3030    4.5660   45.1120 C   0  0  0  0  0  0  0  0  0  0  0  0
    9.5890    5.8910   45.3110 C   0  0  0  0  0  0  0  0  0  0  0  0
   10.0170    6.9450   44.3040 C   0  0  0  0  0  0  0  0  0  0  0  0
    9.2530    7.3870   43.4470 O   0  0  0  0  0  0  0  0  0  0  0  0
   11.4550    7.4180   44.4180 C   0  0  0  0  0  0  0  0  0  0  0  0
   12.3310    6.8600   43.2980 C   0  0  0  0  0  0  0  0  0  0  0  0
   12.9910    7.9540   42.5180 C   0  0  0  0  0  0  0  0  0  0  0  0
   12.6370    8.2640   41.2250 C   0  0  0  0  0  0  0  0  0  0  0  0
   13.1910    9.2650   40.5160 N   0  0  0  0  0  0  0  0  0  0  0  0
   14.1460    9.9930   41.1170 C   0  0  0  0  0  0  0  0  0  0  0  0
   14.7810   11.0500   40.4620 N   0  0  0  0  0  0  0  0  0  0  0  0
   15.9100   11.7240   40.7540 C   0  0  0  0  0  0  0  0  0  0  0  0
   16.9320   11.4160   41.6740 C   0  0  0  0  0  0  0  0  0  0  0  0
   17.9030   12.3340   41.6820 N   0  0  0  0  0  0  0  0  0  0  0  0
   17.4920   13.2370   40.7730 N   0  0  0  0  0  0  0  0  0  0  0  0
   18.3140   14.3960   40.5180 C   0  0  0  0  0  0  0  0  0  0  0  0
   16.2990   12.9120   40.1700 C   0  0  0  0  0  0  0  0  0  0  0  0
   15.6700   13.7580   39.1260 C   0  0  0  0  0  0  0  0  0  0  0  0
   14.5590    9.7700   42.3760 N   0  0  0  0  0  0  0  0  0  0  0  0
   13.9750    8.7580   43.0470 C   0  0  0  0  0  0  0  0  0  0  0  0
   10.5399    4.1263   46.0921 H   0  0  0  0  0  0  0  0  0  0  0  0
    9.6525    3.8798   44.5499 H   0  0  0  0  0  0  0  0  0  0  0  0
   11.2339    4.7319   44.5499 H   0  0  0  0  0  0  0  0  0  0  0  0
    8.5062    5.7260   45.2090 H   0  0  0  0  0  0  0  0  0  0  0  0
    9.8514    6.2626   46.3125 H   0  0  0  0  0  0  0  0  0  0  0  0
   11.4725    8.5168   44.3687 H   0  0  0  0  0  0  0  0  0  0  0  0
   11.8568    7.0564   45.3760 H   0  0  0  0  0  0  0  0  0  0  0  0
   13.1074    6.2172   43.7386 H   0  0  0  0  0  0  0  0  0  0  0  0
   11.6895    6.2872   42.6122 H   0  0  0  0  0  0  0  0  0  0  0  0
   11.8556    7.6584   40.7426 H   0  0  0  0  0  0  0  0  0  0  0  0
   14.2190   11.2810   39.6550 H   0  0  0  0  0  0  0  0  0  0  0  0
   16.9306   10.5209   42.3134 H   0  0  0  0  0  0  0  0  0  0  0  0
   18.6288   14.8398   41.4740 H   0  0  0  0  0  0  0  0  0  0  0  0
   19.2024   14.0961   39.9428 H   0  0  0  0  0  0  0  0  0  0  0  0
   17.7372   15.1352   39.9428 H   0  0  0  0  0  0  0  0  0  0  0  0
   15.0791   14.5527   39.6049 H   0  0  0  0  0  0  0  0  0  0  0  0
   16.4530   14.2101   38.4995 H   0  0  0  0  0  0  0  0  0  0  0  0
   15.0115   13.1384   38.4995 H   0  0  0  0  0  0  0  0  0  0  0  0
   14.3040    8.5628   44.0783 H   0  0  0  0  0  0  0  0  0  0  0  0
  1  2  1  0
  2  3  1  0
  3  4  2  0
  3  5  1  0
  5  6  1  0
  6  7  1  0
  7  8  2  0
  8  9  1  0
  9 10  2  0
 10 11  1  0
 11 12  1  0
 12 13  1  0
 13 14  2  0
 14 15  1  0
 15 16  1  0
 15 17  1  0
 17 18  1  0
 10 19  1  0
 19 20  2  0
 20  7  1  0
 17 12  2  0
  1 21  1  0
  1 22  1  0
  1 23  1  0
  2 24  1  0
  2 25  1  0
  5 26  1  0
  5 27  1  0
  6 28  1  0
  6 29  1  0
  8 30  1  0
 11 31  1  0
 13 32  1  0
 16 33  1  0
 16 34  1  0
 16 35  1  0
 18 36  1  0
 18 37  1  0
 18 38  1  0
 20 39  1  0
M  END
>  <meeko>  (75) 
{"is_sidechain": false}

>  <vina_energy>  (75) 
-6.66

$$$$

     RDKit          3D

 40 41  0  0  0  0  0  0  0  0999 V2000
   17.5930   14.8400   39.2050 C   0  0  0  0  0  0  0  0  0  0  0  0
   18.5850   14.4070   40.2200 C   0  0  0  0  0  0  0  0  0  0  0  0
   18.4420   13.7880   41.4450 C   0  0  0  0  0  0  0  0  0  0  0  0
   17.2670   13.4340   42.0020 N   0  0  0  0  0  0  0  0  0  0  0  0
   16.4240   12.3490   41.7560 C   0  0  0  0  0  0  0  0  0  0  0  0
   15.4150   12.5910   40.9030 N   0  0  0  0  0  0  0  0  0  0  0  0
   14.5720   11.5730   40.6390 C   0  0  0  0  0  0  0  0  0  0  0  0
   14.6980   10.3110   41.1760 C   0  0  0  0  0  0  0  0  0  0  0  0
   13.7650    9.1870   40.8480 C   0  0  0  0  0  0  0  0  0  0  0  0
   12.3420    9.4020   41.3160 C   0  0  0  0  0  0  0  0  0  0  0  0
   11.3990    9.7260   40.6090 O   0  0  0  0  0  0  0  0  0  0  0  0
   12.2680    9.1470   42.6540 O   0  0  0  0  0  0  0  0  0  0  0  0
   12.1560    7.7600   43.0320 C   0  0  0  0  0  0  0  0  0  0  0  0
   10.9070    7.5610   43.8840 C   0  0  0  0  0  0  0  0  0  0  0  0
   13.4100    7.4090   43.8230 C   0  0  0  0  0  0  0  0  0  0  0  0
   15.7630   10.1670   42.0370 C   0  0  0  0  0  0  0  0  0  0  0  0
   16.6270   11.1550   42.3360 N   0  0  0  0  0  0  0  0  0  0  0  0
   19.7550   13.6320   41.9320 C   0  0  0  0  0  0  0  0  0  0  0  0
   20.6720   14.1140   41.0890 N   0  0  0  0  0  0  0  0  0  0  0  0
   19.9390   14.5870   40.0640 N   0  0  0  0  0  0  0  0  0  0  0  0
   20.6170   15.1980   38.9430 C   0  0  0  0  0  0  0  0  0  0  0  0
   16.6977   15.2308   39.7107 H   0  0  0  0  0  0  0  0  0  0  0  0
   18.0323   15.6282   38.5759 H   0  0  0  0  0  0  0  0  0  0  0  0
   17.3137   13.9820   38.5759 H   0  0  0  0  0  0  0  0  0  0  0  0
   16.8500   13.9730   42.7480 H   0  0  0  0  0  0  0  0  0  0  0  0
   13.7328   11.7615   39.9533 H   0  0  0  0  0  0  0  0  0  0  0  0
   13.7525    9.0573   39.7557 H   0  0  0  0  0  0  0  0  0  0  0  0
   14.1408    8.3004   41.3796 H   0  0  0  0  0  0  0  0  0  0  0  0
   12.0676    7.1096   42.1493 H   0  0  0  0  0  0  0  0  0  0  0  0
   11.1789    7.6043   44.9490 H   0  0  0  0  0  0  0  0  0  0  0  0
   10.1793    8.3545   43.6588 H   0  0  0  0  0  0  0  0  0  0  0  0
   10.4619    6.5806   43.6588 H   0  0  0  0  0  0  0  0  0  0  0  0
   13.1933    7.4697   44.8997 H   0  0  0  0  0  0  0  0  0  0  0  0
   13.7289    6.3871   43.5702 H   0  0  0  0  0  0  0  0  0  0  0  0
   14.2131    8.1169   43.5702 H   0  0  0  0  0  0  0  0  0  0  0  0
   15.9170    9.1854   42.5089 H   0  0  0  0  0  0  0  0  0  0  0  0
   19.9976   13.1655   42.8982 H   0  0  0  0  0  0  0  0  0  0  0  0
   21.3864   15.8914   39.3135 H   0  0  0  0  0  0  0  0  0  0  0  0
   21.0915   14.4166   38.3313 H   0  0  0  0  0  0  0  0  0  0  0  0
   19.8890   15.7510   38.3313 H   0  0  0  0  0  0  0  0  0  0  0  0
  1  2  1  0
  2  3  2  0
  3  4  1  0
  4  5  1  0
  5  6  2  0
  6  7  1  0
  7  8  2  0
  8  9  1  0
  9 10  1  0
 10 11  2  0
 10 12  1  0
 12 13  1  0
 13 14  1  0
 13 15  1  0
  8 16  1  0
 16 17  2  0
  3 18  1  0
 18 19  2  0
 19 20  1  0
 20 21  1  0
 20  2  1  0
 17  5  1  0
  1 22  1  0
  1 23  1  0
  1 24  1  0
  4 25  1  0
  7 26  1  0
  9 27  1  0
  9 28  1  0
 13 29  1  0
 14 30  1  0
 14 31  1  0
 14 32  1  0
 15 33  1  0
 15 34  1  0
 15 35  1  0
 16 36  1  0
 18 37  1  0
 21 38  1  0
 21 39  1  0
 21 40  1  0
M  END
>  <meeko>  (76) 
{"is_sidechain": false}

>  <vina_energy>  (76) 
-6.13

$$$$

     RDKit          3D

 40 41  0  0  0  0  0  0  0  0999 V2000
   11.9890    5.8790   43.7720 C   0  0  0  0  0  0  0  0  0  0  0  0
   11.7440    7.3800   43.7810 C   0  0  0  0  0  0  0  0  0  0  0  0
   12.9770    8.1840   43.3800 C   0  0  0  0  0  0  0  0  0  0  0  0
   12.6150    9.2110   42.4410 O   0  0  0  0  0  0  0  0  0  0  0  0
   13.1120    9.0930   41.1780 C   0  0  0  0  0  0  0  0  0  0  0  0
   13.3750    8.0380   40.6180 O   0  0  0  0  0  0  0  0  0  0  0  0
   13.3180   10.4740   40.5940 C   0  0  0  0  0  0  0  0  0  0  0  0
   14.6510   11.0800   40.9080 C   0  0  0  0  0  0  0  0  0  0  0  0
   15.1400   12.1920   40.2600 C   0  0  0  0  0  0  0  0  0  0  0  0
   16.3450   12.7420   40.5170 N   0  0  0  0  0  0  0  0  0  0  0  0
   17.0930   12.1690   41.4730 C   0  0  0  0  0  0  0  0  0  0  0  0
   18.3270   12.7760   41.7050 N   0  0  0  0  0  0  0  0  0  0  0  0
   18.6610   14.0690   41.8860 C   0  0  0  0  0  0  0  0  0  0  0  0
   18.5250   14.8830   43.0280 C   0  0  0  0  0  0  0  0  0  0  0  0
   18.9770   16.1250   42.8240 N   0  0  0  0  0  0  0  0  0  0  0  0
   19.4000   16.1000   41.5470 N   0  0  0  0  0  0  0  0  0  0  0  0
   19.9620   17.3000   40.9710 C   0  0  0  0  0  0  0  0  0  0  0  0
   19.2310   14.8830   40.9290 C   0  0  0  0  0  0  0  0  0  0  0  0
   19.6250   14.6370   39.5200 C   0  0  0  0  0  0  0  0  0  0  0  0
   16.7000   11.0870   42.1640 N   0  0  0  0  0  0  0  0  0  0  0  0
   15.4910   10.5700   41.8710 C   0  0  0  0  0  0  0  0  0  0  0  0
   12.0491    5.5111   44.8069 H   0  0  0  0  0  0  0  0  0  0  0  0
   11.1612    5.3755   43.2513 H   0  0  0  0  0  0  0  0  0  0  0  0
   12.9340    5.6648   43.2513 H   0  0  0  0  0  0  0  0  0  0  0  0
   10.9316    7.6075   43.0752 H   0  0  0  0  0  0  0  0  0  0  0  0
   11.4831    7.6662   44.8106 H   0  0  0  0  0  0  0  0  0  0  0  0
   13.4153    8.6484   44.2757 H   0  0  0  0  0  0  0  0  0  0  0  0
   13.7088    7.5098   42.9109 H   0  0  0  0  0  0  0  0  0  0  0  0
   13.2194   10.4045   39.5006 H   0  0  0  0  0  0  0  0  0  0  0  0
   12.5586   11.1266   41.0494 H   0  0  0  0  0  0  0  0  0  0  0  0
   14.5116   12.6594   39.4876 H   0  0  0  0  0  0  0  0  0  0  0  0
   19.0230   12.0430   41.7150 H   0  0  0  0  0  0  0  0  0  0  0  0
   18.0957   14.5362   43.9795 H   0  0  0  0  0  0  0  0  0  0  0  0
   20.2800   17.9789   41.7759 H   0  0  0  0  0  0  0  0  0  0  0  0
   20.8303   17.0364   40.3493 H   0  0  0  0  0  0  0  0  0  0  0  0
   19.2036   17.7982   40.3493 H   0  0  0  0  0  0  0  0  0  0  0  0
   20.5578   14.0546   39.4965 H   0  0  0  0  0  0  0  0  0  0  0  0
   18.8290   14.0752   39.0094 H   0  0  0  0  0  0  0  0  0  0  0  0
   19.7803   15.5989   39.0094 H   0  0  0  0  0  0  0  0  0  0  0  0
   15.1553    9.6875   42.4353 H   0  0  0  0  0  0  0  0  0  0  0  0
  1  2  1  0
  2  3  1  0
  3  4  1  0
  4  5  1  0
  5  6  2  0
  5  7  1  0
  7  8  1  0
  8  9  2  0
  9 10  1  0
 10 11  2  0
 11 12  1  0
 12 13  1  0
 13 14  1  0
 14 15  2  0
 15 16  1  0
 16 17  1  0
 16 18  1  0
 18 19  1  0
 11 20  1  0
 20 21  2  0
 21  8  1  0
 18 13  2  0
  1 22  1  0
  1 23  1  0
  1 24  1  0
  2 25  1  0
  2 26  1  0
  3 27  1  0
  3 28  1  0
  7 29  1  0
  7 30  1  0
  9 31  1  0
 12 32  1  0
 14 33  1  0
 17 34  1  0
 17 35  1  0
 17 36  1  0
 19 37  1  0
 19 38  1  0
 19 39  1  0
 21 40  1  0
M  END
>  <meeko>  (77) 
{"is_sidechain": false}

>  <vina_energy>  (77) 
-6.31

$$$$

     RDKit          3D

 38 39  0  0  0  0  0  0  0  0999 V2000
   11.7740    6.2220   43.8160 C   0  0  0  0  0  0  0  0  0  0  0  0
   13.1030    6.8700   43.4770 C   0  0  0  0  0  0  0  0  0  0  0  0
   12.9410    8.2890   42.9720 C   0  0  0  0  0  0  0  0  0  0  0  0
   12.2220    9.1280   43.5020 O   0  0  0  0  0  0  0  0  0  0  0  0
   13.6890    8.5460   41.8420 N   0  0  0  0  0  0  0  0  0  0  0  0
   13.6200    9.8190   41.1610 C   0  0  0  0  0  0  0  0  0  0  0  0
   14.8940   10.5820   41.2960 C   0  0  0  0  0  0  0  0  0  0  0  0
   15.9250   10.1800   42.1130 C   0  0  0  0  0  0  0  0  0  0  0  0
   17.0890   10.8450   42.2370 N   0  0  0  0  0  0  0  0  0  0  0  0
   17.2410   11.9660   41.5130 C   0  0  0  0  0  0  0  0  0  0  0  0
   18.4110   12.7240   41.5740 N   0  0  0  0  0  0  0  0  0  0  0  0
   18.6020   14.0510   41.7070 C   0  0  0  0  0  0  0  0  0  0  0  0
   18.6650   14.8400   42.8730 C   0  0  0  0  0  0  0  0  0  0  0  0
   18.8710   16.1330   42.6010 N   0  0  0  0  0  0  0  0  0  0  0  0
   18.9320   16.1670   41.2580 N   0  0  0  0  0  0  0  0  0  0  0  0
   19.1480   17.4340   40.5980 C   0  0  0  0  0  0  0  0  0  0  0  0
   18.7830   14.9360   40.6640 C   0  0  0  0  0  0  0  0  0  0  0  0
   18.8270   14.7440   39.1940 C   0  0  0  0  0  0  0  0  0  0  0  0
   16.2960   12.4380   40.6840 N   0  0  0  0  0  0  0  0  0  0  0  0
   15.1470   11.7370   40.5900 C   0  0  0  0  0  0  0  0  0  0  0  0
   11.6611    6.1669   44.9088 H   0  0  0  0  0  0  0  0  0  0  0  0
   10.9550    6.8219   43.3925 H   0  0  0  0  0  0  0  0  0  0  0  0
   11.7422    5.2073   43.3925 H   0  0  0  0  0  0  0  0  0  0  0  0
   13.7291    6.8861   44.3813 H   0  0  0  0  0  0  0  0  0  0  0  0
   13.5693    6.2794   42.6746 H   0  0  0  0  0  0  0  0  0  0  0  0
   14.1490    7.7740   41.3770 H   0  0  0  0  0  0  0  0  0  0  0  0
   13.4205    9.6428   40.0937 H   0  0  0  0  0  0  0  0  0  0  0  0
   12.8135   10.4111   41.6182 H   0  0  0  0  0  0  0  0  0  0  0  0
   15.7903    9.2598   42.7004 H   0  0  0  0  0  0  0  0  0  0  0  0
   19.1870   12.0810   41.4930 H   0  0  0  0  0  0  0  0  0  0  0  0
   18.5570   14.4379   43.8912 H   0  0  0  0  0  0  0  0  0  0  0  0
   19.2824   18.2225   41.3531 H   0  0  0  0  0  0  0  0  0  0  0  0
   20.0484   17.3711   39.9692 H   0  0  0  0  0  0  0  0  0  0  0  0
   18.2776   17.6730   39.9692 H   0  0  0  0  0  0  0  0  0  0  0  0
   19.0675   13.6946   38.9683 H   0  0  0  0  0  0  0  0  0  0  0  0
   17.8476   14.9969   38.7617 H   0  0  0  0  0  0  0  0  0  0  0  0
   19.5985   15.3981   38.7617 H   0  0  0  0  0  0  0  0  0  0  0  0
   14.3670   12.1098   39.9099 H   0  0  0  0  0  0  0  0  0  0  0  0
  1  2  1  0
  2  3  1  0
  3  4  2  0
  3  5  1  0
  5  6  1  0
  6  7  1  0
  7  8  2  0
  8  9  1  0
  9 10  2  0
 10 11  1  0
 11 12  1  0
 12 13  1  0
 13 14  2  0
 14 15  1  0
 15 16  1  0
 15 17  1  0
 17 18  1  0
 10 19  1  0
 19 20  2  0
 20  7  1  0
 17 12  2  0
  1 21  1  0
  1 22  1  0
  1 23  1  0
  2 24  1  0
  2 25  1  0
  5 26  1  0
  6 27  1  0
  6 28  1  0
  8 29  1  0
 11 30  1  0
 13 31  1  0
 16 32  1  0
 16 33  1  0
 16 34  1  0
 18 35  1  0
 18 36  1  0
 18 37  1  0
 20 38  1  0
M  END
>  <meeko>  (78) 
{"is_sidechain": false}

>  <vina_energy>  (78) 
-6.54

$$$$

     RDKit          3D

 41 42  0  0  0  0  0  0  0  0999 V2000
    8.7870    7.6900   46.5250 C   0  0  0  0  0  0  0  0  0  0  0  0
   10.1090    7.8430   45.7900 C   0  0  0  0  0  0  0  0  0  0  0  0
   10.1260    7.0990   44.4640 C   0  0  0  0  0  0  0  0  0  0  0  0
    9.4760    7.4950   43.4980 O   0  0  0  0  0  0  0  0  0  0  0  0
   10.9090    5.9480   44.3960 N   0  0  0  0  0  0  0  0  0  0  0  0
   10.4590    4.6360   44.8450 C   0  0  0  0  0  0  0  0  0  0  0  0
   12.3380    6.1050   44.1290 C   0  0  0  0  0  0  0  0  0  0  0  0
   12.6340    7.2340   43.1940 C   0  0  0  0  0  0  0  0  0  0  0  0
   12.7350    7.0670   41.8330 C   0  0  0  0  0  0  0  0  0  0  0  0
   13.0140    8.0630   40.9680 N   0  0  0  0  0  0  0  0  0  0  0  0
   13.2020    9.2900   41.4870 C   0  0  0  0  0  0  0  0  0  0  0  0
   13.4890   10.2890   40.5560 N   0  0  0  0  0  0  0  0  0  0  0  0
   14.4060   11.2760   40.5690 C   0  0  0  0  0  0  0  0  0  0  0  0
   14.4030   12.5180   39.9010 C   0  0  0  0  0  0  0  0  0  0  0  0
   15.4990   13.2370   40.1630 N   0  0  0  0  0  0  0  0  0  0  0  0
   16.2050   12.4480   40.9920 N   0  0  0  0  0  0  0  0  0  0  0  0
   17.4810   12.9120   41.4840 C   0  0  0  0  0  0  0  0  0  0  0  0
   15.5880   11.2530   41.2810 C   0  0  0  0  0  0  0  0  0  0  0  0
   16.1860   10.2380   42.1830 C   0  0  0  0  0  0  0  0  0  0  0  0
   13.1240    9.5520   42.8000 N   0  0  0  0  0  0  0  0  0  0  0  0
   12.8430    8.5240   43.6250 C   0  0  0  0  0  0  0  0  0  0  0  0
    8.9662    7.7107   47.6101 H   0  0  0  0  0  0  0  0  0  0  0  0
    8.1159    8.5165   46.2484 H   0  0  0  0  0  0  0  0  0  0  0  0
    8.3224    6.7321   46.2484 H   0  0  0  0  0  0  0  0  0  0  0  0
   10.2842    8.9117   45.5974 H   0  0  0  0  0  0  0  0  0  0  0  0
   10.8971    7.4128   46.4254 H   0  0  0  0  0  0  0  0  0  0  0  0
   10.4494    4.6082   45.9446 H   0  0  0  0  0  0  0  0  0  0  0  0
    9.4444    4.4464   44.4646 H   0  0  0  0  0  0  0  0  0  0  0  0
   11.1436    3.8636   44.4646 H   0  0  0  0  0  0  0  0  0  0  0  0
   12.8546    6.2935   45.0817 H   0  0  0  0  0  0  0  0  0  0  0  0
   12.6884    5.1788   43.6500 H   0  0  0  0  0  0  0  0  0  0  0  0
   12.5784    6.0578   41.4243 H   0  0  0  0  0  0  0  0  0  0  0  0
   12.8470   10.1750   39.7830 H   0  0  0  0  0  0  0  0  0  0  0  0
   13.5915   12.8564   39.2399 H   0  0  0  0  0  0  0  0  0  0  0  0
   17.4729   12.9091   42.5840 H   0  0  0  0  0  0  0  0  0  0  0  0
   18.2779   12.2461   41.1214 H   0  0  0  0  0  0  0  0  0  0  0  0
   17.6641   13.9343   41.1214 H   0  0  0  0  0  0  0  0  0  0  0  0
   16.0137   10.5304   43.2293 H   0  0  0  0  0  0  0  0  0  0  0  0
   15.7200    9.2596   41.9942 H   0  0  0  0  0  0  0  0  0  0  0  0
   17.2676   10.1715   41.9942 H   0  0  0  0  0  0  0  0  0  0  0  0
   12.7770    8.7277   44.7040 H   0  0  0  0  0  0  0  0  0  0  0  0
  1  2  1  0
  2  3  1  0
  3  4  2  0
  3  5  1  0
  5  6  1  0
  5  7  1  0
  7  8  1  0
  8  9  2  0
  9 10  1  0
 10 11  2  0
 11 12  1  0
 12 13  1  0
 13 14  1  0
 14 15  2  0
 15 16  1  0
 16 17  1  0
 16 18  1  0
 18 19  1  0
 11 20  1  0
 20 21  2  0
 21  8  1  0
 18 13  2  0
  1 22  1  0
  1 23  1  0
  1 24  1  0
  2 25  1  0
  2 26  1  0
  6 27  1  0
  6 28  1  0
  6 29  1  0
  7 30  1  0
  7 31  1  0
  9 32  1  0
 12 33  1  0
 14 34  1  0
 17 35  1  0
 17 36  1  0
 17 37  1  0
 19 38  1  0
 19 39  1  0
 19 40  1  0
 21 41  1  0
M  END
>  <meeko>  (79) 
{"is_sidechain": false}

>  <vina_energy>  (79) 
-6.52

$$$$

     RDKit          3D

 41 42  0  0  0  0  0  0  0  0999 V2000
   10.2220    5.7610   45.0640 C   0  0  0  0  0  0  0  0  0  0  0  0
   10.4650    6.9560   44.1620 C   0  0  0  0  0  0  0  0  0  0  0  0
   11.9010    7.0290   43.6800 C   0  0  0  0  0  0  0  0  0  0  0  0
   12.6820    6.0820   43.7120 O   0  0  0  0  0  0  0  0  0  0  0  0
   12.2560    8.2840   43.2250 N   0  0  0  0  0  0  0  0  0  0  0  0
   13.6060    8.5720   42.7790 C   0  0  0  0  0  0  0  0  0  0  0  0
   13.6170    9.5390   41.5940 C   0  0  0  0  0  0  0  0  0  0  0  0
   14.8590   10.3680   41.5440 C   0  0  0  0  0  0  0  0  0  0  0  0
   15.9770   10.0770   42.2900 C   0  0  0  0  0  0  0  0  0  0  0  0
   17.1030   10.8170   42.2720 N   0  0  0  0  0  0  0  0  0  0  0  0
   17.1230   11.8920   41.4640 C   0  0  0  0  0  0  0  0  0  0  0  0
   18.2910   12.6530   41.5130 N   0  0  0  0  0  0  0  0  0  0  0  0
   18.4800   13.9800   41.6430 C   0  0  0  0  0  0  0  0  0  0  0  0
   18.5780   14.7640   42.8110 C   0  0  0  0  0  0  0  0  0  0  0  0
   18.7820   16.0590   42.5400 N   0  0  0  0  0  0  0  0  0  0  0  0
   18.8170   16.0970   41.1940 N   0  0  0  0  0  0  0  0  0  0  0  0
   19.0750   17.3550   40.5380 C   0  0  0  0  0  0  0  0  0  0  0  0
   18.6300   14.8690   40.5980 C   0  0  0  0  0  0  0  0  0  0  0  0
   18.6460   14.6750   39.1240 C   0  0  0  0  0  0  0  0  0  0  0  0
   16.0910   12.2420   40.6830 N   0  0  0  0  0  0  0  0  0  0  0  0
   14.9850   11.4770   40.7400 C   0  0  0  0  0  0  0  0  0  0  0  0
   10.2862    6.0765   46.1158 H   0  0  0  0  0  0  0  0  0  0  0  0
    9.2217    5.3489   44.8652 H   0  0  0  0  0  0  0  0  0  0  0  0
   10.9819    4.9910   44.8652 H   0  0  0  0  0  0  0  0  0  0  0  0
    9.8016    6.8804   43.2878 H   0  0  0  0  0  0  0  0  0  0  0  0
   10.2584    7.8658   44.7448 H   0  0  0  0  0  0  0  0  0  0  0  0
   11.5840    9.0390   43.2760 H   0  0  0  0  0  0  0  0  0  0  0  0
   14.1679    9.0216   43.6110 H   0  0  0  0  0  0  0  0  0  0  0  0
   14.0685    7.6280   42.4551 H   0  0  0  0  0  0  0  0  0  0  0  0
   13.5433    8.9574   40.6633 H   0  0  0  0  0  0  0  0  0  0  0  0
   12.7633   10.2225   41.7122 H   0  0  0  0  0  0  0  0  0  0  0  0
   15.9506    9.1891   42.9387 H   0  0  0  0  0  0  0  0  0  0  0  0
   19.0670   12.0060   41.4930 H   0  0  0  0  0  0  0  0  0  0  0  0
   18.4961   14.3574   43.8298 H   0  0  0  0  0  0  0  0  0  0  0  0
   19.2354   18.1370   41.2948 H   0  0  0  0  0  0  0  0  0  0  0  0
   19.9730   17.2633   39.9094 H   0  0  0  0  0  0  0  0  0  0  0  0
   18.2134   17.6242   39.9094 H   0  0  0  0  0  0  0  0  0  0  0  0
   18.7345   13.6025   38.8963 H   0  0  0  0  0  0  0  0  0  0  0  0
   17.7126   15.0657   38.6926 H   0  0  0  0  0  0  0  0  0  0  0  0
   19.5028   15.2133   38.6926 H   0  0  0  0  0  0  0  0  0  0  0  0
   14.1306   11.7554   40.1056 H   0  0  0  0  0  0  0  0  0  0  0  0
  1  2  1  0
  2  3  1  0
  3  4  2  0
  3  5  1  0
  5  6  1  0
  6  7  1  0
  7  8  1  0
  8  9  2  0
  9 10  1  0
 10 11  2  0
 11 12  1  0
 12 13  1  0
 13 14  1  0
 14 15  2  0
 15 16  1  0
 16 17  1  0
 16 18  1  0
 18 19  1  0
 11 20  1  0
 20 21  2  0
 21  8  1  0
 18 13  2  0
  1 22  1  0
  1 23  1  0
  1 24  1  0
  2 25  1  0
  2 26  1  0
  5 27  1  0
  6 28  1  0
  6 29  1  0
  7 30  1  0
  7 31  1  0
  9 32  1  0
 12 33  1  0
 14 34  1  0
 17 35  1  0
 17 36  1  0
 17 37  1  0
 19 38  1  0
 19 39  1  0
 19 40  1  0
 21 41  1  0
M  END
>  <meeko>  (80) 
{"is_sidechain": false}

>  <vina_energy>  (80) 
-6.71

$$$$

     RDKit          3D

 36 37  0  0  0  0  0  0  0  0999 V2000
   14.6760   12.7090   39.9750 C   0  0  0  0  0  0  0  0  0  0  0  0
   15.4250   11.8360   40.9090 C   0  0  0  0  0  0  0  0  0  0  0  0
   15.1000   10.6410   41.5170 C   0  0  0  0  0  0  0  0  0  0  0  0
   13.9350    9.9850   41.3560 N   0  0  0  0  0  0  0  0  0  0  0  0
   13.2510    9.1000   42.1960 C   0  0  0  0  0  0  0  0  0  0  0  0
   12.6580    9.5160   43.3230 N   0  0  0  0  0  0  0  0  0  0  0  0
   12.0170    8.5850   44.0650 C   0  0  0  0  0  0  0  0  0  0  0  0
   11.9800    7.2480   43.7430 C   0  0  0  0  0  0  0  0  0  0  0  0
   11.3070    6.2170   44.5990 C   0  0  0  0  0  0  0  0  0  0  0  0
    9.7980    6.4300   44.7400 C   0  0  1  0  0  0  0  0  0  0  0  0
    9.0790    5.0880   44.8830 C   0  0  0  0  0  0  0  0  0  0  0  0
    9.3920    7.2280   45.9910 C   0  0  0  0  0  0  0  0  0  0  0  0
    8.1480    7.4050   46.1200 O   0  0  0  0  0  0  0  0  0  0  0  0
   10.3370    7.6020   46.7400 O   0  0  0  0  0  0  0  0  0  0  0  0
   12.6090    6.9280   42.5610 C   0  0  0  0  0  0  0  0  0  0  0  0
   13.2500    7.8210   41.7780 N   0  0  0  0  0  0  0  0  0  0  0  0
   16.2270   10.3030   42.2940 C   0  0  0  0  0  0  0  0  0  0  0  0
   17.2050   11.2090   42.1880 N   0  0  0  0  0  0  0  0  0  0  0  0
   16.6890   12.1340   41.3590 N   0  0  0  0  0  0  0  0  0  0  0  0
   17.4810   13.2950   41.0270 C   0  0  0  0  0  0  0  0  0  0  0  0
   14.0650   13.4212   40.5490 H   0  0  0  0  0  0  0  0  0  0  0  0
   15.3851   13.2618   39.3413 H   0  0  0  0  0  0  0  0  0  0  0  0
   14.0218   12.0921   39.3413 H   0  0  0  0  0  0  0  0  0  0  0  0
   13.3680   10.0920   40.5280 H   0  0  0  0  0  0  0  0  0  0  0  0
   11.4965    8.9148   44.9762 H   0  0  0  0  0  0  0  0  0  0  0  0
   11.4784    5.2271   44.1511 H   0  0  0  0  0  0  0  0  0  0  0  0
   11.7407    6.3003   45.6065 H   0  0  0  0  0  0  0  0  0  0  0  0
    9.5174    6.9848   43.8326 H   0  0  0  0  0  0  0  0  0  0  0  0
    8.9524    4.8517   45.9498 H   0  0  0  0  0  0  0  0  0  0  0  0
    8.0920    5.1476   44.4010 H   0  0  0  0  0  0  0  0  0  0  0  0
    9.6754    4.2993   44.4010 H   0  0  0  0  0  0  0  0  0  0  0  0
   12.5878    5.8779   42.2340 H   0  0  0  0  0  0  0  0  0  0  0  0
   16.2941    9.3981   42.9159 H   0  0  0  0  0  0  0  0  0  0  0  0
   17.8165   13.7867   41.9520 H   0  0  0  0  0  0  0  0  0  0  0  0
   18.3569   12.9852   40.4380 H   0  0  0  0  0  0  0  0  0  0  0  0
   16.8730   13.9974   40.4380 H   0  0  0  0  0  0  0  0  0  0  0  0
  1  2  1  0
  2  3  2  0
  3  4  1  0
  4  5  1  0
  5  6  2  0
  6  7  1  0
  7  8  2  0
  8  9  1  0
  9 10  1  0
 10 11  1  0
 10 12  1  0
 12 13  2  0
 12 14  1  0
  8 15  1  0
 15 16  2  0
  3 17  1  0
 17 18  2  0
 18 19  1  0
 19 20  1  0
 19  2  1  0
 16  5  1  0
  1 21  1  0
  1 22  1  0
  1 23  1  0
  4 24  1  0
  7 25  1  0
  9 26  1  0
  9 27  1  0
 10 28  1  6
 11 29  1  0
 11 30  1  0
 11 31  1  0
 15 32  1  0
 17 33  1  0
 20 34  1  0
 20 35  1  0
 20 36  1  0
M  CHG  1  14  -1
M  END
>  <meeko>  (81) 
{"is_sidechain": false}

>  <vina_energy>  (81) 
-6.97

$$$$

     RDKit          3D

 37 38  0  0  0  0  0  0  0  0999 V2000
   10.1540    4.7040   45.1550 C   0  0  0  0  0  0  0  0  0  0  0  0
    9.7470    6.1570   45.3310 C   0  0  0  0  0  0  0  0  0  0  0  0
   10.3010    7.0370   44.2370 C   0  0  0  0  0  0  0  0  0  0  0  0
    9.6440    7.6240   43.3900 O   0  0  0  0  0  0  0  0  0  0  0  0
   11.6600    7.0830   44.3340 O   0  0  0  0  0  0  0  0  0  0  0  0
   12.3350    6.5840   43.1770 C   0  0  0  0  0  0  0  0  0  0  0  0
   12.9250    7.7470   42.4540 C   0  0  0  0  0  0  0  0  0  0  0  0
   13.7130    8.6880   43.0760 C   0  0  0  0  0  0  0  0  0  0  0  0
   14.2690    9.7400   42.4420 N   0  0  0  0  0  0  0  0  0  0  0  0
   14.0410    9.8550   41.1230 C   0  0  0  0  0  0  0  0  0  0  0  0
   14.6350   10.9590   40.5100 N   0  0  0  0  0  0  0  0  0  0  0  0
   15.7710   11.6250   40.7920 C   0  0  0  0  0  0  0  0  0  0  0  0
   16.7990   11.3100   41.7030 C   0  0  0  0  0  0  0  0  0  0  0  0
   17.7760   12.2210   41.7040 N   0  0  0  0  0  0  0  0  0  0  0  0
   17.3670   13.1240   40.7930 N   0  0  0  0  0  0  0  0  0  0  0  0
   18.1950   14.2770   40.5270 C   0  0  0  0  0  0  0  0  0  0  0  0
   16.1630   12.8110   40.2060 C   0  0  0  0  0  0  0  0  0  0  0  0
   15.5320   13.6650   39.1700 C   0  0  0  0  0  0  0  0  0  0  0  0
   13.2980    8.9790   40.4270 N   0  0  0  0  0  0  0  0  0  0  0  0
   12.7630    7.9450   41.1030 C   0  0  0  0  0  0  0  0  0  0  0  0
   10.2846    4.2376   46.1426 H   0  0  0  0  0  0  0  0  0  0  0  0
    9.3712    4.1689   44.5975 H   0  0  0  0  0  0  0  0  0  0  0  0
   11.1009    4.6534   44.5975 H   0  0  0  0  0  0  0  0  0  0  0  0
    8.6490    6.2222   45.3171 H   0  0  0  0  0  0  0  0  0  0  0  0
   10.1550    6.5099   46.2896 H   0  0  0  0  0  0  0  0  0  0  0  0
   13.1318    5.8888   43.4799 H   0  0  0  0  0  0  0  0  0  0  0  0
   11.6317    6.0444   42.5257 H   0  0  0  0  0  0  0  0  0  0  0  0
   13.9004    8.5753   44.1541 H   0  0  0  0  0  0  0  0  0  0  0  0
   14.0380   11.2330   39.7420 H   0  0  0  0  0  0  0  0  0  0  0  0
   16.7971   10.4144   42.3417 H   0  0  0  0  0  0  0  0  0  0  0  0
   18.5166   14.7249   41.4788 H   0  0  0  0  0  0  0  0  0  0  0  0
   19.0790   13.9683   39.9498 H   0  0  0  0  0  0  0  0  0  0  0  0
   17.6200   15.0160   39.9498 H   0  0  0  0  0  0  0  0  0  0  0  0
   14.9456   14.4586   39.6562 H   0  0  0  0  0  0  0  0  0  0  0  0
   16.3136   14.1186   38.5428 H   0  0  0  0  0  0  0  0  0  0  0  0
   14.8689   13.0511   38.5428 H   0  0  0  0  0  0  0  0  0  0  0  0
   12.1608    7.2156   40.5415 H   0  0  0  0  0  0  0  0  0  0  0  0
  1  2  1  0
  2  3  1  0
  3  4  2  0
  3  5  1  0
  5  6  1  0
  6  7  1  0
  7  8  2  0
  8  9  1  0
  9 10  2  0
 10 11  1  0
 11 12  1  0
 12 13  1  0
 13 14  2  0
 14 15  1  0
 15 16  1  0
 15 17  1  0
 17 18  1  0
 10 19  1  0
 19 20  2  0
 20  7  1  0
 17 12  2  0
  1 21  1  0
  1 22  1  0
  1 23  1  0
  2 24  1  0
  2 25  1  0
  6 26  1  0
  6 27  1  0
  8 28  1  0
 11 29  1  0
 13 30  1  0
 16 31  1  0
 16 32  1  0
 16 33  1  0
 18 34  1  0
 18 35  1  0
 18 36  1  0
 20 37  1  0
M  END
>  <meeko>  (82) 
{"is_sidechain": false}

>  <vina_energy>  (82) 
-6.65

$$$$

     RDKit          3D

 40 41  0  0  0  0  0  0  0  0999 V2000
   11.4480    5.4360   44.1340 C   0  0  0  0  0  0  0  0  0  0  0  0
   12.2710    6.6580   43.7700 C   0  0  0  0  0  0  0  0  0  0  0  0
   11.4920    7.9400   43.9450 C   0  0  0  0  0  0  0  0  0  0  0  0
   10.3700    8.0320   44.4200 O   0  0  0  0  0  0  0  0  0  0  0  0
   12.2390    8.9900   43.5020 O   0  0  0  0  0  0  0  0  0  0  0  0
   13.4530    8.6490   42.8100 C   0  0  0  0  0  0  0  0  0  0  0  0
   13.6200    9.4660   41.5260 C   0  0  0  0  0  0  0  0  0  0  0  0
   14.8600   10.3060   41.5420 C   0  0  0  0  0  0  0  0  0  0  0  0
   15.9630    9.9900   42.3030 C   0  0  0  0  0  0  0  0  0  0  0  0
   17.0960   10.7160   42.3170 N   0  0  0  0  0  0  0  0  0  0  0  0
   17.1420   11.8060   41.5360 C   0  0  0  0  0  0  0  0  0  0  0  0
   18.2740   12.6210   41.4840 N   0  0  0  0  0  0  0  0  0  0  0  0
   18.4130   13.9540   41.6190 C   0  0  0  0  0  0  0  0  0  0  0  0
   18.3660   14.7530   42.7800 C   0  0  0  0  0  0  0  0  0  0  0  0
   18.5510   16.0490   42.5140 N   0  0  0  0  0  0  0  0  0  0  0  0
   18.7100   16.0770   41.1790 N   0  0  0  0  0  0  0  0  0  0  0  0
   18.9330   17.3460   40.5250 C   0  0  0  0  0  0  0  0  0  0  0  0
   18.6430   14.8380   40.5860 C   0  0  0  0  0  0  0  0  0  0  0  0
   18.8010   14.6390   39.1230 C   0  0  0  0  0  0  0  0  0  0  0  0
   16.1210   12.1960   40.7550 N   0  0  0  0  0  0  0  0  0  0  0  0
   15.0060   11.4380   40.7730 C   0  0  0  0  0  0  0  0  0  0  0  0
   11.3881    5.3471   45.2288 H   0  0  0  0  0  0  0  0  0  0  0  0
   10.4347    5.5393   43.7185 H   0  0  0  0  0  0  0  0  0  0  0  0
   11.9246    4.5359   43.7185 H   0  0  0  0  0  0  0  0  0  0  0  0
   13.1603    6.6922   44.4165 H   0  0  0  0  0  0  0  0  0  0  0  0
   12.5516    6.5740   42.7097 H   0  0  0  0  0  0  0  0  0  0  0  0
   14.3087    8.8466   43.4724 H   0  0  0  0  0  0  0  0  0  0  0  0
   13.4049    7.5847   42.5361 H   0  0  0  0  0  0  0  0  0  0  0  0
   13.6722    8.7750   40.6717 H   0  0  0  0  0  0  0  0  0  0  0  0
   12.7569   10.1430   41.4441 H   0  0  0  0  0  0  0  0  0  0  0  0
   15.9154    9.0919   42.9364 H   0  0  0  0  0  0  0  0  0  0  0  0
   19.0680   12.0200   41.3110 H   0  0  0  0  0  0  0  0  0  0  0  0
   18.1961   14.3540   43.7909 H   0  0  0  0  0  0  0  0  0  0  0  0
   19.0708   18.1303   41.2838 H   0  0  0  0  0  0  0  0  0  0  0  0
   19.8336   17.2814   39.8967 H   0  0  0  0  0  0  0  0  0  0  0  0
   18.0644   17.5923   39.8967 H   0  0  0  0  0  0  0  0  0  0  0  0
   19.4754   13.7896   38.9392 H   0  0  0  0  0  0  0  0  0  0  0  0
   17.8189   14.4315   38.6730 H   0  0  0  0  0  0  0  0  0  0  0  0
   19.2257   15.5485   38.6730 H   0  0  0  0  0  0  0  0  0  0  0  0
   14.1631   11.7425   40.1352 H   0  0  0  0  0  0  0  0  0  0  0  0
  1  2  1  0
  2  3  1  0
  3  4  2  0
  3  5  1  0
  5  6  1  0
  6  7  1  0
  7  8  1  0
  8  9  2  0
  9 10  1  0
 10 11  2  0
 11 12  1  0
 12 13  1  0
 13 14  1  0
 14 15  2  0
 15 16  1  0
 16 17  1  0
 16 18  1  0
 18 19  1  0
 11 20  1  0
 20 21  2  0
 21  8  1  0
 18 13  2  0
  1 22  1  0
  1 23  1  0
  1 24  1  0
  2 25  1  0
  2 26  1  0
  6 27  1  0
  6 28  1  0
  7 29  1  0
  7 30  1  0
  9 31  1  0
 12 32  1  0
 14 33  1  0
 17 34  1  0
 17 35  1  0
 17 36  1  0
 19 37  1  0
 19 38  1  0
 19 39  1  0
 21 40  1  0
M  END
>  <meeko>  (83) 
{"is_sidechain": false}

>  <vina_energy>  (83) 
-6.52

$$$$

     RDKit          3D

 37 38  0  0  0  0  0  0  0  0999 V2000
   16.2860   10.1690   42.3670 C   0  0  0  0  0  0  0  0  0  0  0  0
   15.2660   10.6010   41.3790 C   0  0  0  0  0  0  0  0  0  0  0  0
   14.1560    9.9690   40.8560 C   0  0  0  0  0  0  0  0  0  0  0  0
   13.7450    8.7260   41.1780 N   0  0  0  0  0  0  0  0  0  0  0  0
   13.0740    8.2490   42.3010 C   0  0  0  0  0  0  0  0  0  0  0  0
   12.5240    9.1810   43.0960 N   0  0  0  0  0  0  0  0  0  0  0  0
   11.8510    8.7640   44.1830 C   0  0  0  0  0  0  0  0  0  0  0  0
   11.6690    7.4370   44.5030 C   0  0  0  0  0  0  0  0  0  0  0  0
   10.8200    6.9750   45.6480 C   0  0  0  0  0  0  0  0  0  0  0  0
    9.3870    6.5420   45.2630 C   0  0  1  0  0  0  0  0  0  0  0  0
    9.2520    5.0600   44.9370 C   0  0  0  0  0  0  0  0  0  0  0  0
    8.4110    6.8670   46.3480 N   0  0  0  0  0  0  0  0  0  0  0  0
   12.3030    6.5560   43.6560 C   0  0  0  0  0  0  0  0  0  0  0  0
   12.9640    6.9350   42.5510 N   0  0  0  0  0  0  0  0  0  0  0  0
   13.5940   10.8990   39.9590 C   0  0  0  0  0  0  0  0  0  0  0  0
   14.2790   12.0440   39.9160 N   0  0  0  0  0  0  0  0  0  0  0  0
   15.3000   11.8340   40.7690 N   0  0  0  0  0  0  0  0  0  0  0  0
   16.2790   12.8790   40.9630 C   0  0  0  0  0  0  0  0  0  0  0  0
   15.9023   10.3315   43.3850 H   0  0  0  0  0  0  0  0  0  0  0  0
   16.5055    9.1006   42.2241 H   0  0  0  0  0  0  0  0  0  0  0  0
   17.2061   10.7547   42.2241 H   0  0  0  0  0  0  0  0  0  0  0  0
   13.8870    7.9500   40.5440 H   0  0  0  0  0  0  0  0  0  0  0  0
   11.4226    9.5241   44.8529 H   0  0  0  0  0  0  0  0  0  0  0  0
   11.3209    6.1170   46.1202 H   0  0  0  0  0  0  0  0  0  0  0  0
   10.7110    7.8395   46.3194 H   0  0  0  0  0  0  0  0  0  0  0  0
    9.1640    7.1127   44.3495 H   0  0  0  0  0  0  0  0  0  0  0  0
    9.1994    4.4823   45.8716 H   0  0  0  0  0  0  0  0  0  0  0  0
    8.3351    4.8953   44.3520 H   0  0  0  0  0  0  0  0  0  0  0  0
   10.1240    4.7323   44.3520 H   0  0  0  0  0  0  0  0  0  0  0  0
    8.0770    7.8420   46.2950 H   0  0  0  0  0  0  0  0  0  0  0  0
    7.5820    6.2570   46.3250 H   0  0  0  0  0  0  0  0  0  0  0  0
    8.8350    6.7520   47.2800 H   0  0  0  0  0  0  0  0  0  0  0  0
   12.2658    5.4836   43.8979 H   0  0  0  0  0  0  0  0  0  0  0  0
   12.6917   10.7034   39.3610 H   0  0  0  0  0  0  0  0  0  0  0  0
   16.4322   13.0425   42.0399 H   0  0  0  0  0  0  0  0  0  0  0  0
   17.2305   12.5809   40.4984 H   0  0  0  0  0  0  0  0  0  0  0  0
   15.9196   13.8090   40.4984 H   0  0  0  0  0  0  0  0  0  0  0  0
  1  2  1  0
  2  3  2  0
  3  4  1  0
  4  5  1  0
  5  6  2  0
  6  7  1  0
  7  8  2  0
  8  9  1  0
  9 10  1  0
 10 11  1  0
 10 12  1  0
  8 13  1  0
 13 14  2  0
  3 15  1  0
 15 16  2  0
 16 17  1  0
 17 18  1  0
 17  2  1  0
 14  5  1  0
  1 19  1  0
  1 20  1  0
  1 21  1  0
  4 22  1  0
  7 23  1  0
  9 24  1  0
  9 25  1  0
 10 26  1  6
 11 27  1  0
 11 28  1  0
 11 29  1  0
 12 30  1  0
 12 31  1  0
 12 32  1  0
 13 33  1  0
 15 34  1  0
 18 35  1  0
 18 36  1  0
 18 37  1  0
M  CHG  1  12   1
M  END
>  <meeko>  (84) 
{"is_sidechain": false}

>  <vina_energy>  (84) 
-6.80

$$$$

     RDKit          3D

 37 38  0  0  0  0  0  0  0  0999 V2000
    8.1790    8.2650   46.7390 C   0  0  0  0  0  0  0  0  0  0  0  0
    9.3280    7.3310   46.4160 C   0  0  0  0  0  0  0  0  0  0  0  0
    8.8750    6.2250   45.5170 N   0  0  0  0  0  0  0  0  0  0  0  0
    9.9590    5.3990   44.8950 C   0  0  0  0  0  0  0  0  0  0  0  0
   11.0030    6.2430   44.2560 C   0  0  0  0  0  0  0  0  0  0  0  0
   12.2600    5.7740   43.9440 C   0  0  0  0  0  0  0  0  0  0  0  0
   13.2330    6.5380   43.4170 N   0  0  0  0  0  0  0  0  0  0  0  0
   12.9540    7.8300   43.1730 C   0  0  0  0  0  0  0  0  0  0  0  0
   13.9910    8.5860   42.6310 N   0  0  0  0  0  0  0  0  0  0  0  0
   13.9780    9.5620   41.7000 C   0  0  0  0  0  0  0  0  0  0  0  0
   12.9890    9.8910   40.7530 C   0  0  0  0  0  0  0  0  0  0  0  0
   13.3350   10.9370   39.9980 N   0  0  0  0  0  0  0  0  0  0  0  0
   14.5550   11.2690   40.4550 N   0  0  0  0  0  0  0  0  0  0  0  0
   15.2570   12.3780   39.8490 C   0  0  0  0  0  0  0  0  0  0  0  0
   14.9910   10.4770   41.4930 C   0  0  0  0  0  0  0  0  0  0  0  0
   16.3050   10.6770   42.1550 C   0  0  0  0  0  0  0  0  0  0  0  0
   11.7550    8.3690   43.4430 N   0  0  0  0  0  0  0  0  0  0  0  0
   10.8060    7.5740   43.9630 C   0  0  0  0  0  0  0  0  0  0  0  0
    8.0725    8.3515   47.8304 H   0  0  0  0  0  0  0  0  0  0  0  0
    8.3818    9.2576   46.3105 H   0  0  0  0  0  0  0  0  0  0  0  0
    7.2487    7.8637   46.3105 H   0  0  0  0  0  0  0  0  0  0  0  0
   10.1254    7.8996   45.9151 H   0  0  0  0  0  0  0  0  0  0  0  0
    9.7017    6.8934   47.3535 H   0  0  0  0  0  0  0  0  0  0  0  0
    8.2680    5.6000   46.0670 H   0  0  0  0  0  0  0  0  0  0  0  0
    8.2630    6.6060   44.7820 H   0  0  0  0  0  0  0  0  0  0  0  0
   10.4288    4.7829   45.6758 H   0  0  0  0  0  0  0  0  0  0  0  0
    9.5037    4.7716   44.1146 H   0  0  0  0  0  0  0  0  0  0  0  0
   12.4805    4.7137   44.1370 H   0  0  0  0  0  0  0  0  0  0  0  0
   14.8600    8.2790   43.0480 H   0  0  0  0  0  0  0  0  0  0  0  0
   12.0385    9.3476   40.6470 H   0  0  0  0  0  0  0  0  0  0  0  0
   15.6676   13.0266   40.6369 H   0  0  0  0  0  0  0  0  0  0  0  0
   16.0777   11.9952   39.2245 H   0  0  0  0  0  0  0  0  0  0  0  0
   14.5599   12.9560   39.2245 H   0  0  0  0  0  0  0  0  0  0  0  0
   16.1724   10.6568   43.2468 H   0  0  0  0  0  0  0  0  0  0  0  0
   16.9932    9.8733   41.8543 H   0  0  0  0  0  0  0  0  0  0  0  0
   16.7229   11.6491   41.8543 H   0  0  0  0  0  0  0  0  0  0  0  0
    9.8167    8.0100   44.1661 H   0  0  0  0  0  0  0  0  0  0  0  0
  1  2  1  0
  2  3  1  0
  3  4  1  0
  4  5  1  0
  5  6  2  0
  6  7  1  0
  7  8  2  0
  8  9  1  0
  9 10  1  0
 10 11  1  0
 11 12  2  0
 12 13  1  0
 13 14  1  0
 13 15  1  0
 15 16  1  0
  8 17  1  0
 17 18  2  0
 18  5  1  0
 15 10  2  0
  1 19  1  0
  1 20  1  0
  1 21  1  0
  2 22  1  0
  2 23  1  0
  3 24  1  0
  3 25  1  0
  4 26  1  0
  4 27  1  0
  6 28  1  0
  9 29  1  0
 11 30  1  0
 14 31  1  0
 14 32  1  0
 14 33  1  0
 16 34  1  0
 16 35  1  0
 16 36  1  0
 18 37  1  0
M  CHG  1   3   1
M  END
>  <meeko>  (85) 
{"is_sidechain": false}

>  <vina_energy>  (85) 
-7.17

$$$$

     RDKit          3D

 40 41  0  0  0  0  0  0  0  0999 V2000
    9.9990    4.6780   45.2570 C   0  0  0  0  0  0  0  0  0  0  0  0
    8.9150    5.6930   44.9410 C   0  0  0  0  0  0  0  0  0  0  0  0
    9.3580    7.0900   45.3320 N   0  0  1  0  0  0  0  0  0  0  0  0
    8.5270    7.6120   46.4830 C   0  0  0  0  0  0  0  0  0  0  0  0
   10.8500    7.1800   45.6150 C   0  0  0  0  0  0  0  0  0  0  0  0
   11.6700    7.6100   44.4480 C   0  0  0  0  0  0  0  0  0  0  0  0
   11.9360    8.9310   44.1650 C   0  0  0  0  0  0  0  0  0  0  0  0
   12.6430    9.3390   43.0940 N   0  0  0  0  0  0  0  0  0  0  0  0
   13.1280    8.3970   42.2680 C   0  0  0  0  0  0  0  0  0  0  0  0
   13.8480    8.8620   41.1700 N   0  0  0  0  0  0  0  0  0  0  0  0
   14.2870   10.1000   40.8630 C   0  0  0  0  0  0  0  0  0  0  0  0
   13.7580   11.0460   39.9620 C   0  0  0  0  0  0  0  0  0  0  0  0
   14.4710   12.1740   39.9330 N   0  0  0  0  0  0  0  0  0  0  0  0
   15.4640   11.9460   40.8120 N   0  0  0  0  0  0  0  0  0  0  0  0
   16.4560   12.9740   41.0370 C   0  0  0  0  0  0  0  0  0  0  0  0
   15.4030   10.7050   41.4050 C   0  0  0  0  0  0  0  0  0  0  0  0
   16.4000   10.2480   42.4030 C   0  0  0  0  0  0  0  0  0  0  0  0
   12.9270    7.0860   42.4750 N   0  0  0  0  0  0  0  0  0  0  0  0
   12.2220    6.7180   43.5570 C   0  0  0  0  0  0  0  0  0  0  0  0
   10.1032    4.5804   46.3477 H   0  0  0  0  0  0  0  0  0  0  0  0
    9.7257    3.7035   44.8261 H   0  0  0  0  0  0  0  0  0  0  0  0
   10.9534    5.0147   44.8261 H   0  0  0  0  0  0  0  0  0  0  0  0
    8.7026    5.6703   43.8619 H   0  0  0  0  0  0  0  0  0  0  0  0
    8.0116    5.4353   45.5133 H   0  0  0  0  0  0  0  0  0  0  0  0
    9.1510    7.7070   44.5360 H   0  0  0  0  0  0  0  0  0  0  0  0
    8.9938    7.3188   47.4349 H   0  0  0  0  0  0  0  0  0  0  0  0
    8.4692    8.7090   46.4256 H   0  0  0  0  0  0  0  0  0  0  0  0
    7.5137    7.1879   46.4256 H   0  0  0  0  0  0  0  0  0  0  0  0
   11.0033    7.9036   46.4292 H   0  0  0  0  0  0  0  0  0  0  0  0
   11.1829    6.1649   45.8773 H   0  0  0  0  0  0  0  0  0  0  0  0
   11.5488    9.6969   44.8531 H   0  0  0  0  0  0  0  0  0  0  0  0
   14.0190    8.0810   40.5500 H   0  0  0  0  0  0  0  0  0  0  0  0
   12.8591   10.8741   39.3517 H   0  0  0  0  0  0  0  0  0  0  0  0
   16.5955   13.1185   42.1185 H   0  0  0  0  0  0  0  0  0  0  0  0
   17.4098   12.6690   40.5818 H   0  0  0  0  0  0  0  0  0  0  0  0
   16.1172   13.9164   40.5818 H   0  0  0  0  0  0  0  0  0  0  0  0
   16.0120   10.4258   43.4168 H   0  0  0  0  0  0  0  0  0  0  0  0
   16.5895    9.1731   42.2663 H   0  0  0  0  0  0  0  0  0  0  0  0
   17.3380   10.8060   42.2663 H   0  0  0  0  0  0  0  0  0  0  0  0
   12.0775    5.6433   43.7416 H   0  0  0  0  0  0  0  0  0  0  0  0
  1  2  1  0
  2  3  1  0
  3  4  1  0
  3  5  1  0
  5  6  1  0
  6  7  2  0
  7  8  1  0
  8  9  2  0
  9 10  1  0
 10 11  1  0
 11 12  1  0
 12 13  2  0
 13 14  1  0
 14 15  1  0
 14 16  1  0
 16 17  1  0
  9 18  1  0
 18 19  2  0
 19  6  1  0
 16 11  2  0
  1 20  1  0
  1 21  1  0
  1 22  1  0
  2 23  1  0
  2 24  1  0
  3 25  1  6
  4 26  1  0
  4 27  1  0
  4 28  1  0
  5 29  1  0
  5 30  1  0
  7 31  1  0
 10 32  1  0
 12 33  1  0
 15 34  1  0
 15 35  1  0
 15 36  1  0
 17 37  1  0
 17 38  1  0
 17 39  1  0
 19 40  1  0
M  CHG  1   3   1
M  END
>  <meeko>  (86) 
{"is_sidechain": false}

>  <vina_energy>  (86) 
-5.92

$$$$

     RDKit          3D

 43 44  0  0  0  0  0  0  0  0999 V2000
   10.5240    7.6450   45.0520 C   0  0  0  0  0  0  0  0  0  0  0  0
   11.7390    8.4330   44.6010 C   0  0  0  0  0  0  0  0  0  0  0  0
   12.3110    7.8570   43.3190 N   0  0  2  0  0  0  0  0  0  0  0  0
   12.2830    6.3500   43.2670 C   0  0  0  0  0  0  0  0  0  0  0  0
   13.6660    8.4420   42.9490 C   0  0  0  0  0  0  0  0  0  0  0  0
   13.5990    9.4260   41.7740 C   0  0  0  0  0  0  0  0  0  0  0  0
   14.8460   10.2480   41.6890 C   0  0  0  0  0  0  0  0  0  0  0  0
   14.9460   11.3840   40.9160 C   0  0  0  0  0  0  0  0  0  0  0  0
   16.0440   12.1580   40.8630 N   0  0  0  0  0  0  0  0  0  0  0  0
   17.1050   11.7880   41.6000 C   0  0  0  0  0  0  0  0  0  0  0  0
   18.2250   12.6110   41.5070 N   0  0  0  0  0  0  0  0  0  0  0  0
   18.3550   13.9460   41.6490 C   0  0  0  0  0  0  0  0  0  0  0  0
   18.2770   14.7390   42.8110 C   0  0  0  0  0  0  0  0  0  0  0  0
   18.4540   16.0360   42.5520 N   0  0  0  0  0  0  0  0  0  0  0  0
   18.6710   16.0710   41.2230 N   0  0  0  0  0  0  0  0  0  0  0  0
   18.9240   17.3490   40.6000 C   0  0  0  0  0  0  0  0  0  0  0  0
   18.5980   14.8360   40.6210 C   0  0  0  0  0  0  0  0  0  0  0  0
   18.7720   14.6380   39.1610 C   0  0  0  0  0  0  0  0  0  0  0  0
   17.0960   10.6980   42.3830 N   0  0  0  0  0  0  0  0  0  0  0  0
   15.9810    9.9500   42.4080 C   0  0  0  0  0  0  0  0  0  0  0  0
   10.4890    7.6223   46.1512 H   0  0  0  0  0  0  0  0  0  0  0  0
    9.6122    8.1241   44.6659 H   0  0  0  0  0  0  0  0  0  0  0  0
   10.5896    6.6171   44.6659 H   0  0  0  0  0  0  0  0  0  0  0  0
   11.4460    9.4789   44.4269 H   0  0  0  0  0  0  0  0  0  0  0  0
   12.5072    8.3755   45.3862 H   0  0  0  0  0  0  0  0  0  0  0  0
   11.6830    8.1700   42.5630 H   0  0  0  0  0  0  0  0  0  0  0  0
   12.2755    5.9479   44.2908 H   0  0  0  0  0  0  0  0  0  0  0  0
   11.3785    6.0182   42.7361 H   0  0  0  0  0  0  0  0  0  0  0  0
   13.1745    5.9848   42.7361 H   0  0  0  0  0  0  0  0  0  0  0  0
   14.0696    8.9707   43.8252 H   0  0  0  0  0  0  0  0  0  0  0  0
   14.3094    7.6055   42.6386 H   0  0  0  0  0  0  0  0  0  0  0  0
   13.4767    8.8607   40.8383 H   0  0  0  0  0  0  0  0  0  0  0  0
   12.7451   10.1013   41.9317 H   0  0  0  0  0  0  0  0  0  0  0  0
   14.0773   11.6745   40.3070 H   0  0  0  0  0  0  0  0  0  0  0  0
   19.0330   12.0240   41.3460 H   0  0  0  0  0  0  0  0  0  0  0  0
   18.0913   14.3350   43.8171 H   0  0  0  0  0  0  0  0  0  0  0  0
   19.0751   18.1124   41.3774 H   0  0  0  0  0  0  0  0  0  0  0  0
   19.8258   17.2796   39.9740 H   0  0  0  0  0  0  0  0  0  0  0  0
   18.0637   17.6285   39.9740 H   0  0  0  0  0  0  0  0  0  0  0  0
   19.4887   13.8224   38.9844 H   0  0  0  0  0  0  0  0  0  0  0  0
   17.8035   14.3795   38.7080 H   0  0  0  0  0  0  0  0  0  0  0  0
   19.1528   15.5653   38.7080 H   0  0  0  0  0  0  0  0  0  0  0  0
   15.9745    9.0486   43.0385 H   0  0  0  0  0  0  0  0  0  0  0  0
  1  2  1  0
  2  3  1  0
  3  4  1  0
  3  5  1  0
  5  6  1  0
  6  7  1  0
  7  8  2  0
  8  9  1  0
  9 10  2  0
 10 11  1  0
 11 12  1  0
 12 13  1  0
 13 14  2  0
 14 15  1  0
 15 16  1  0
 15 17  1  0
 17 18  1  0
 10 19  1  0
 19 20  2  0
 20  7  1  0
 17 12  2  0
  1 21  1  0
  1 22  1  0
  1 23  1  0
  2 24  1  0
  2 25  1  0
  3 26  1  6
  4 27  1  0
  4 28  1  0
  4 29  1  0
  5 30  1  0
  5 31  1  0
  6 32  1  0
  6 33  1  0
  8 34  1  0
 11 35  1  0
 13 36  1  0
 16 37  1  0
 16 38  1  0
 16 39  1  0
 18 40  1  0
 18 41  1  0
 18 42  1  0
 20 43  1  0
M  CHG  1   3   1
M  END
>  <meeko>  (87) 
{"is_sidechain": false}

>  <vina_energy>  (87) 
-5.71

$$$$

     RDKit          3D

 43 44  0  0  0  0  0  0  0  0999 V2000
    8.8650    7.7240   46.4720 C   0  0  0  0  0  0  0  0  0  0  0  0
   10.1670    7.8990   45.7140 C   0  0  0  0  0  0  0  0  0  0  0  0
   10.2880    6.8950   44.5780 N   0  0  0  0  0  0  0  0  0  0  0  0
    9.4880    5.6160   44.7510 C   0  0  0  0  0  0  0  0  0  0  0  0
   10.3520    4.4280   45.1320 C   0  0  0  0  0  0  0  0  0  0  0  0
   11.7400    6.6170   44.1970 C   0  0  0  0  0  0  0  0  0  0  0  0
   12.3040    7.5720   43.2030 C   0  0  0  0  0  0  0  0  0  0  0  0
   12.6370    7.2070   41.9180 C   0  0  0  0  0  0  0  0  0  0  0  0
   13.1070    8.0640   40.9940 N   0  0  0  0  0  0  0  0  0  0  0  0
   13.2770    9.3460   41.3580 C   0  0  0  0  0  0  0  0  0  0  0  0
   13.7630   10.2000   40.3710 N   0  0  0  0  0  0  0  0  0  0  0  0
   14.6130   11.2440   40.4480 C   0  0  0  0  0  0  0  0  0  0  0  0
   14.5680   12.4930   39.7970 C   0  0  0  0  0  0  0  0  0  0  0  0
   15.6000   13.2740   40.1220 N   0  0  0  0  0  0  0  0  0  0  0  0
   16.3050   12.5250   40.9910 N   0  0  0  0  0  0  0  0  0  0  0  0
   17.5130   13.0680   41.5700 C   0  0  0  0  0  0  0  0  0  0  0  0
   15.7530   11.2870   41.2260 C   0  0  0  0  0  0  0  0  0  0  0  0
   16.3660   10.3030   42.1510 C   0  0  0  0  0  0  0  0  0  0  0  0
   12.9910    9.7850   42.5930 N   0  0  0  0  0  0  0  0  0  0  0  0
   12.5270    8.8990   43.4900 C   0  0  0  0  0  0  0  0  0  0  0  0
    9.0639    7.7507   47.5535 H   0  0  0  0  0  0  0  0  0  0  0  0
    8.1738    8.5373   46.2061 H   0  0  0  0  0  0  0  0  0  0  0  0
    8.4130    6.7570   46.2061 H   0  0  0  0  0  0  0  0  0  0  0  0
   10.2046    8.9165   45.2977 H   0  0  0  0  0  0  0  0  0  0  0  0
   10.9995    7.7319   46.4133 H   0  0  0  0  0  0  0  0  0  0  0  0
    9.8690    7.3600   43.7610 H   0  0  0  0  0  0  0  0  0  0  0  0
    8.7396    5.7740   45.5415 H   0  0  0  0  0  0  0  0  0  0  0  0
    9.0179    5.3864   43.7834 H   0  0  0  0  0  0  0  0  0  0  0  0
   10.4076    4.3515   46.2279 H   0  0  0  0  0  0  0  0  0  0  0  0
    9.9110    3.5074   44.7221 H   0  0  0  0  0  0  0  0  0  0  0  0
   11.3637    4.5639   44.7221 H   0  0  0  0  0  0  0  0  0  0  0  0
   12.3519    6.6677   45.1097 H   0  0  0  0  0  0  0  0  0  0  0  0
   11.7584    5.6231   43.7261 H   0  0  0  0  0  0  0  0  0  0  0  0
   12.5113    6.1528   41.6301 H   0  0  0  0  0  0  0  0  0  0  0  0
   13.3720    9.9140   39.4830 H   0  0  0  0  0  0  0  0  0  0  0  0
   13.7715   12.7907   39.0992 H   0  0  0  0  0  0  0  0  0  0  0  0
   17.4405   13.0354   42.6671 H   0  0  0  0  0  0  0  0  0  0  0  0
   18.3771   12.4717   41.2417 H   0  0  0  0  0  0  0  0  0  0  0  0
   17.6407   14.1101   41.2417 H   0  0  0  0  0  0  0  0  0  0  0  0
   16.1755   10.6087   43.1904 H   0  0  0  0  0  0  0  0  0  0  0  0
   15.9262    9.3103   41.9744 H   0  0  0  0  0  0  0  0  0  0  0  0
   17.4509   10.2601   41.9744 H   0  0  0  0  0  0  0  0  0  0  0  0
   12.3138    9.2537   44.5092 H   0  0  0  0  0  0  0  0  0  0  0  0
  1  2  1  0
  2  3  1  0
  3  4  1  0
  4  5  1  0
  3  6  1  0
  6  7  1  0
  7  8  2  0
  8  9  1  0
  9 10  2  0
 10 11  1  0
 11 12  1  0
 12 13  1  0
 13 14  2  0
 14 15  1  0
 15 16  1  0
 15 17  1  0
 17 18  1  0
 10 19  1  0
 19 20  2  0
 20  7  1  0
 17 12  2  0
  1 21  1  0
  1 22  1  0
  1 23  1  0
  2 24  1  0
  2 25  1  0
  3 26  1  0
  4 27  1  0
  4 28  1  0
  5 29  1  0
  5 30  1  0
  5 31  1  0
  6 32  1  0
  6 33  1  0
  8 34  1  0
 11 35  1  0
 13 36  1  0
 16 37  1  0
 16 38  1  0
 16 39  1  0
 18 40  1  0
 18 41  1  0
 18 42  1  0
 20 43  1  0
M  CHG  1   3   1
M  END
>  <meeko>  (88) 
{"is_sidechain": false}

>  <vina_energy>  (88) 
-5.90

$$$$

     RDKit          3D

 43 44  0  0  0  0  0  0  0  0999 V2000
    8.6220    7.8440   46.5830 C   0  0  0  0  0  0  0  0  0  0  0  0
    9.9820    7.6190   45.9510 C   0  0  0  0  0  0  0  0  0  0  0  0
    9.8260    7.0710   44.5620 N   0  0  0  0  0  0  0  0  0  0  0  0
   10.7190    5.9120   44.1760 C   0  0  2  0  0  0  0  0  0  0  0  0
   10.4820    4.7360   45.1190 C   0  0  0  0  0  0  0  0  0  0  0  0
   12.2020    6.3650   44.1350 C   0  0  0  0  0  0  0  0  0  0  0  0
   12.5090    7.4390   43.1370 C   0  0  0  0  0  0  0  0  0  0  0  0
   12.7080    7.1920   41.7970 C   0  0  0  0  0  0  0  0  0  0  0  0
   13.0840    8.1340   40.9140 N   0  0  0  0  0  0  0  0  0  0  0  0
   13.2420    9.3890   41.3640 C   0  0  0  0  0  0  0  0  0  0  0  0
   13.6490   10.3280   40.4190 N   0  0  0  0  0  0  0  0  0  0  0  0
   14.5750   11.3050   40.4860 C   0  0  0  0  0  0  0  0  0  0  0  0
   14.6250   12.5450   39.8180 C   0  0  0  0  0  0  0  0  0  0  0  0
   15.7000   13.2610   40.1540 N   0  0  0  0  0  0  0  0  0  0  0  0
   16.3510   12.4680   41.0260 N   0  0  0  0  0  0  0  0  0  0  0  0
   17.5990   12.9220   41.5960 C   0  0  0  0  0  0  0  0  0  0  0  0
   15.7120   11.2730   41.2670 C   0  0  0  0  0  0  0  0  0  0  0  0
   16.2550   10.2530   42.1980 C   0  0  0  0  0  0  0  0  0  0  0  0
   13.0460    9.7230   42.6490 N   0  0  0  0  0  0  0  0  0  0  0  0
   12.6530    8.7610   43.4960 C   0  0  0  0  0  0  0  0  0  0  0  0
    8.7196    7.8279   47.6785 H   0  0  0  0  0  0  0  0  0  0  0  0
    8.2265    8.8198   46.2644 H   0  0  0  0  0  0  0  0  0  0  0  0
    7.9334    7.0476   46.2644 H   0  0  0  0  0  0  0  0  0  0  0  0
   10.5237    8.5753   45.9053 H   0  0  0  0  0  0  0  0  0  0  0  0
   10.5448    6.8963   46.5600 H   0  0  0  0  0  0  0  0  0  0  0  0
    9.9250    7.8380   43.8770 H   0  0  0  0  0  0  0  0  0  0  0  0
    8.8470    6.7690   44.4740 H   0  0  0  0  0  0  0  0  0  0  0  0
   10.4668    5.5680   43.1621 H   0  0  0  0  0  0  0  0  0  0  0  0
   10.5517    5.0817   46.1609 H   0  0  0  0  0  0  0  0  0  0  0  0
    9.4813    4.3167   44.9379 H   0  0  0  0  0  0  0  0  0  0  0  0
   11.2422    3.9618   44.9379 H   0  0  0  0  0  0  0  0  0  0  0  0
   12.4720    6.7397   45.1333 H   0  0  0  0  0  0  0  0  0  0  0  0
   12.7839    5.4839   43.8269 H   0  0  0  0  0  0  0  0  0  0  0  0
   12.5507    6.1676   41.4285 H   0  0  0  0  0  0  0  0  0  0  0  0
   13.0940   10.1930   39.5830 H   0  0  0  0  0  0  0  0  0  0  0  0
   13.8636   12.8845   39.1004 H   0  0  0  0  0  0  0  0  0  0  0  0
   17.5312   12.8973   42.6936 H   0  0  0  0  0  0  0  0  0  0  0  0
   18.4149   12.2631   41.2641 H   0  0  0  0  0  0  0  0  0  0  0  0
   17.8008   13.9511   41.2641 H   0  0  0  0  0  0  0  0  0  0  0  0
   16.0834   10.5753   43.2356 H   0  0  0  0  0  0  0  0  0  0  0  0
   15.7492    9.2917   42.0243 H   0  0  0  0  0  0  0  0  0  0  0  0
   17.3349   10.1358   42.0243 H   0  0  0  0  0  0  0  0  0  0  0  0
   12.4332    9.0433   44.5362 H   0  0  0  0  0  0  0  0  0  0  0  0
  1  2  1  0
  2  3  1  0
  3  4  1  0
  4  5  1  0
  4  6  1  0
  6  7  1  0
  7  8  2  0
  8  9  1  0
  9 10  2  0
 10 11  1  0
 11 12  1  0
 12 13  1  0
 13 14  2  0
 14 15  1  0
 15 16  1  0
 15 17  1  0
 17 18  1  0
 10 19  1  0
 19 20  2  0
 20  7  1  0
 17 12  2  0
  1 21  1  0
  1 22  1  0
  1 23  1  0
  2 24  1  0
  2 25  1  0
  3 26  1  0
  3 27  1  0
  4 28  1  6
  5 29  1  0
  5 30  1  0
  5 31  1  0
  6 32  1  0
  6 33  1  0
  8 34  1  0
 11 35  1  0
 13 36  1  0
 16 37  1  0
 16 38  1  0
 16 39  1  0
 18 40  1  0
 18 41  1  0
 18 42  1  0
 20 43  1  0
M  CHG  1   3   1
M  END
>  <meeko>  (89) 
{"is_sidechain": false}

>  <vina_energy>  (89) 
-6.32

$$$$

     RDKit          3D

 41 42  0  0  0  0  0  0  0  0999 V2000
    9.9480    8.0840   46.1720 C   0  0  0  0  0  0  0  0  0  0  0  0
   10.7620    7.9340   44.8950 C   0  0  0  0  0  0  0  0  0  0  0  0
   10.8570    6.5360   44.4670 N   0  0  0  0  0  0  0  0  0  0  0  0
   12.0560    6.1340   43.7300 C   0  0  0  0  0  0  0  0  0  0  0  0
   12.6490    7.2610   42.9470 C   0  0  0  0  0  0  0  0  0  0  0  0
   13.5950    8.1150   43.4680 C   0  0  0  0  0  0  0  0  0  0  0  0
   14.1490    9.1350   42.7780 N   0  0  0  0  0  0  0  0  0  0  0  0
   13.7450    9.3110   41.5090 C   0  0  0  0  0  0  0  0  0  0  0  0
   14.3470   10.3750   40.8370 N   0  0  0  0  0  0  0  0  0  0  0  0
   15.4780   11.0610   41.0930 C   0  0  0  0  0  0  0  0  0  0  0  0
   16.5590   10.7330   41.9350 C   0  0  0  0  0  0  0  0  0  0  0  0
   17.5090   11.6730   41.9330 N   0  0  0  0  0  0  0  0  0  0  0  0
   17.0290   12.6030   41.0870 N   0  0  0  0  0  0  0  0  0  0  0  0
   17.8120   13.7920   40.8340 C   0  0  0  0  0  0  0  0  0  0  0  0
   15.8070   12.2840   40.5460 C   0  0  0  0  0  0  0  0  0  0  0  0
   15.0990   13.1660   39.5860 C   0  0  0  0  0  0  0  0  0  0  0  0
   12.8290    8.5300   40.9130 N   0  0  0  0  0  0  0  0  0  0  0  0
   12.3030    7.5270   41.6430 C   0  0  0  0  0  0  0  0  0  0  0  0
    9.8940    5.5700   44.7290 C   0  0  0  0  0  0  0  0  0  0  0  0
   10.3620    4.2380   45.2590 C   0  0  0  0  0  0  0  0  0  0  0  0
    8.6910    5.7780   44.5590 O   0  0  0  0  0  0  0  0  0  0  0  0
   10.6077    7.9624   47.0438 H   0  0  0  0  0  0  0  0  0  0  0  0
    9.4867    9.0823   46.1977 H   0  0  0  0  0  0  0  0  0  0  0  0
    9.1612    7.3157   46.1977 H   0  0  0  0  0  0  0  0  0  0  0  0
   10.2813    8.5182   44.0965 H   0  0  0  0  0  0  0  0  0  0  0  0
   11.7803    8.2983   45.0958 H   0  0  0  0  0  0  0  0  0  0  0  0
   12.8059    5.7695   44.4475 H   0  0  0  0  0  0  0  0  0  0  0  0
   11.7638    5.3483   43.0177 H   0  0  0  0  0  0  0  0  0  0  0  0
   13.9185    7.9571   44.5074 H   0  0  0  0  0  0  0  0  0  0  0  0
   13.7610   10.5950   40.0430 H   0  0  0  0  0  0  0  0  0  0  0  0
   16.6148    9.8077   42.5272 H   0  0  0  0  0  0  0  0  0  0  0  0
   18.1104   14.2451   41.7909 H   0  0  0  0  0  0  0  0  0  0  0  0
   18.7108   13.5238   40.2593 H   0  0  0  0  0  0  0  0  0  0  0  0
   17.2105   14.5117   40.2593 H   0  0  0  0  0  0  0  0  0  0  0  0
   14.5039   13.9074   40.1394 H   0  0  0  0  0  0  0  0  0  0  0  0
   15.8345   13.6845   38.9534 H   0  0  0  0  0  0  0  0  0  0  0  0
   14.4337   12.5601   38.9534 H   0  0  0  0  0  0  0  0  0  0  0  0
   11.5506    6.8813   41.1666 H   0  0  0  0  0  0  0  0  0  0  0  0
   10.3550    4.2580   46.3588 H   0  0  0  0  0  0  0  0  0  0  0  0
    9.6888    3.4445   44.9024 H   0  0  0  0  0  0  0  0  0  0  0  0
   11.3836    4.0399   44.9024 H   0  0  0  0  0  0  0  0  0  0  0  0
  1  2  1  0
  2  3  1  0
  3  4  1  0
  4  5  1  0
  5  6  2  0
  6  7  1  0
  7  8  2  0
  8  9  1  0
  9 10  1  0
 10 11  1  0
 11 12  2  0
 12 13  1  0
 13 14  1  0
 13 15  1  0
 15 16  1  0
  8 17  1  0
 17 18  2  0
  3 19  1  0
 19 20  1  0
 19 21  2  0
 18  5  1  0
 15 10  2  0
  1 22  1  0
  1 23  1  0
  1 24  1  0
  2 25  1  0
  2 26  1  0
  4 27  1  0
  4 28  1  0
  6 29  1  0
  9 30  1  0
 11 31  1  0
 14 32  1  0
 14 33  1  0
 14 34  1  0
 16 35  1  0
 16 36  1  0
 16 37  1  0
 18 38  1  0
 20 39  1  0
 20 40  1  0
 20 41  1  0
M  END
>  <meeko>  (90) 
{"is_sidechain": false}

>  <vina_energy>  (90) 
-6.06

$$$$

     RDKit          3D

 44 45  0  0  0  0  0  0  0  0999 V2000
    9.4180    4.4600   44.8570 C   0  0  0  0  0  0  0  0  0  0  0  0
   10.7560    4.9550   45.3730 C   0  0  0  0  0  0  0  0  0  0  0  0
   11.2530    6.2220   44.7050 N   0  0  2  0  0  0  0  0  0  0  0  0
   10.2440    7.3490   44.5720 C   0  0  0  0  0  0  0  0  0  0  0  0
    9.7150    7.8270   45.9300 C   0  0  0  0  0  0  0  0  0  0  0  0
    8.3500    7.4610   46.0360 O   0  0  0  0  0  0  0  0  0  0  0  0
   12.0850    6.0000   43.4440 C   0  0  0  0  0  0  0  0  0  0  0  0
   12.6860    7.1940   42.7940 C   0  0  0  0  0  0  0  0  0  0  0  0
   12.5440    7.4590   41.4480 C   0  0  0  0  0  0  0  0  0  0  0  0
   13.0580    8.5420   40.8380 N   0  0  0  0  0  0  0  0  0  0  0  0
   13.7670    9.4050   41.5860 C   0  0  0  0  0  0  0  0  0  0  0  0
   14.2750   10.5160   40.9170 N   0  0  0  0  0  0  0  0  0  0  0  0
   15.4290   11.1930   41.0820 C   0  0  0  0  0  0  0  0  0  0  0  0
   16.5540   10.8780   41.8700 C   0  0  0  0  0  0  0  0  0  0  0  0
   17.5120   11.8030   41.7810 N   0  0  0  0  0  0  0  0  0  0  0  0
   17.0050   12.7050   40.9220 N   0  0  0  0  0  0  0  0  0  0  0  0
   17.7920   13.8670   40.5750 C   0  0  0  0  0  0  0  0  0  0  0  0
   15.7410   12.3920   40.4750 C   0  0  0  0  0  0  0  0  0  0  0  0
   14.9910   13.2560   39.5300 C   0  0  0  0  0  0  0  0  0  0  0  0
   13.9720    9.2150   42.8980 N   0  0  0  0  0  0  0  0  0  0  0  0
   13.4460    8.1190   43.4700 C   0  0  0  0  0  0  0  0  0  0  0  0
    8.7638    4.2180   45.7075 H   0  0  0  0  0  0  0  0  0  0  0  0
    8.9484    5.2439   44.2447 H   0  0  0  0  0  0  0  0  0  0  0  0
    9.5717    3.5592   44.2447 H   0  0  0  0  0  0  0  0  0  0  0  0
   10.6586    5.1496   46.4513 H   0  0  0  0  0  0  0  0  0  0  0  0
   11.4915    4.1695   45.1447 H   0  0  0  0  0  0  0  0  0  0  0  0
   11.9540    6.5930   45.3620 H   0  0  0  0  0  0  0  0  0  0  0  0
   10.7267    8.1965   44.0633 H   0  0  0  0  0  0  0  0  0  0  0  0
    9.3887    6.9657   43.9962 H   0  0  0  0  0  0  0  0  0  0  0  0
   10.2899    7.3535   46.7395 H   0  0  0  0  0  0  0  0  0  0  0  0
    9.8194    8.9190   46.0115 H   0  0  0  0  0  0  0  0  0  0  0  0
    8.1930    6.6730   45.4810 H   0  0  0  0  0  0  0  0  0  0  0  0
   12.9086    5.3207   43.7091 H   0  0  0  0  0  0  0  0  0  0  0  0
   11.3702    5.6108   42.7041 H   0  0  0  0  0  0  0  0  0  0  0  0
   11.9765    6.7418   40.8368 H   0  0  0  0  0  0  0  0  0  0  0  0
   13.6110   10.7860   40.2030 H   0  0  0  0  0  0  0  0  0  0  0  0
   16.6336    9.9720   42.4887 H   0  0  0  0  0  0  0  0  0  0  0  0
   18.1312   14.3678   41.4938 H   0  0  0  0  0  0  0  0  0  0  0  0
   18.6654   13.5550   39.9836 H   0  0  0  0  0  0  0  0  0  0  0  0
   17.1782   14.5623   39.9836 H   0  0  0  0  0  0  0  0  0  0  0  0
   14.3727   13.9682   40.0961 H   0  0  0  0  0  0  0  0  0  0  0  0
   15.7004   13.8089   38.8967 H   0  0  0  0  0  0  0  0  0  0  0  0
   14.3439   12.6314   38.8967 H   0  0  0  0  0  0  0  0  0  0  0  0
   13.6343    7.9521   44.5409 H   0  0  0  0  0  0  0  0  0  0  0  0
  1  2  1  0
  2  3  1  0
  3  4  1  0
  4  5  1  0
  5  6  1  0
  3  7  1  0
  7  8  1  0
  8  9  2  0
  9 10  1  0
 10 11  2  0
 11 12  1  0
 12 13  1  0
 13 14  1  0
 14 15  2  0
 15 16  1  0
 16 17  1  0
 16 18  1  0
 18 19  1  0
 11 20  1  0
 20 21  2  0
 21  8  1  0
 18 13  2  0
  1 22  1  0
  1 23  1  0
  1 24  1  0
  2 25  1  0
  2 26  1  0
  3 27  1  1
  4 28  1  0
  4 29  1  0
  5 30  1  0
  5 31  1  0
  6 32  1  0
  7 33  1  0
  7 34  1  0
  9 35  1  0
 12 36  1  0
 14 37  1  0
 17 38  1  0
 17 39  1  0
 17 40  1  0
 19 41  1  0
 19 42  1  0
 19 43  1  0
 21 44  1  0
M  CHG  1   3   1
M  END
>  <meeko>  (91) 
{"is_sidechain": false}

>  <vina_energy>  (91) 
-5.98

$$$$

     RDKit          3D

 38 39  0  0  0  0  0  0  0  0999 V2000
   11.9160    6.0330   43.4820 C   0  0  0  0  0  0  0  0  0  0  0  0
   13.0930    6.9140   43.8530 C   0  0  0  0  0  0  0  0  0  0  0  0
   13.6300    7.5940   42.6920 N   0  0  0  0  0  0  0  0  0  0  0  0
   13.2070    8.8640   42.3610 C   0  0  0  0  0  0  0  0  0  0  0  0
   12.4460    9.5310   43.0570 O   0  0  0  0  0  0  0  0  0  0  0  0
   13.7930    9.4070   41.0710 C   0  0  0  0  0  0  0  0  0  0  0  0
   14.7940   10.4910   41.3120 C   0  0  0  0  0  0  0  0  0  0  0  0
   15.9010   10.3180   42.1110 C   0  0  0  0  0  0  0  0  0  0  0  0
   16.8150   11.2790   42.3430 N   0  0  0  0  0  0  0  0  0  0  0  0
   16.6240   12.4700   41.7540 C   0  0  0  0  0  0  0  0  0  0  0  0
   17.5150   13.5280   41.9380 N   0  0  0  0  0  0  0  0  0  0  0  0
   18.6760   13.8270   41.3230 C   0  0  0  0  0  0  0  0  0  0  0  0
   20.0020   13.6360   41.7600 C   0  0  0  0  0  0  0  0  0  0  0  0
   20.8980   14.0640   40.8660 N   0  0  0  0  0  0  0  0  0  0  0  0
   20.1400   14.5370   39.8590 N   0  0  0  0  0  0  0  0  0  0  0  0
   20.7880   15.0970   38.6970 C   0  0  0  0  0  0  0  0  0  0  0  0
   18.7880   14.4070   40.0760 C   0  0  0  0  0  0  0  0  0  0  0  0
   17.7690   14.8480   39.0930 C   0  0  0  0  0  0  0  0  0  0  0  0
   15.5780   12.7360   40.9560 N   0  0  0  0  0  0  0  0  0  0  0  0
   14.6850   11.7460   40.7540 C   0  0  0  0  0  0  0  0  0  0  0  0
   11.4282    5.6679   44.3979 H   0  0  0  0  0  0  0  0  0  0  0  0
   11.1947    6.6150   42.8895 H   0  0  0  0  0  0  0  0  0  0  0  0
   12.2712    5.1770   42.8895 H   0  0  0  0  0  0  0  0  0  0  0  0
   12.7616    7.6643   44.5859 H   0  0  0  0  0  0  0  0  0  0  0  0
   13.8827    6.2766   44.2773 H   0  0  0  0  0  0  0  0  0  0  0  0
   14.0750    7.0290   41.9800 H   0  0  0  0  0  0  0  0  0  0  0  0
   14.2861    8.5840   40.5330 H   0  0  0  0  0  0  0  0  0  0  0  0
   12.9687    9.8363   40.4826 H   0  0  0  0  0  0  0  0  0  0  0  0
   16.0476    9.3376   42.5878 H   0  0  0  0  0  0  0  0  0  0  0  0
   17.1470   14.1020   42.6840 H   0  0  0  0  0  0  0  0  0  0  0  0
   20.2691   13.1856   42.7274 H   0  0  0  0  0  0  0  0  0  0  0  0
   21.5842   15.7851   39.0172 H   0  0  0  0  0  0  0  0  0  0  0  0
   21.2240   14.2868   38.0942 H   0  0  0  0  0  0  0  0  0  0  0  0
   20.0495   15.6459   38.0942 H   0  0  0  0  0  0  0  0  0  0  0  0
   16.8861   15.2301   39.6265 H   0  0  0  0  0  0  0  0  0  0  0  0
   18.1892   15.6448   38.4617 H   0  0  0  0  0  0  0  0  0  0  0  0
   17.4758   13.9963   38.4617 H   0  0  0  0  0  0  0  0  0  0  0  0
   13.8199   11.9522   40.1066 H   0  0  0  0  0  0  0  0  0  0  0  0
  1  2  1  0
  2  3  1  0
  3  4  1  0
  4  5  2  0
  4  6  1  0
  6  7  1  0
  7  8  2  0
  8  9  1  0
  9 10  2  0
 10 11  1  0
 11 12  1  0
 12 13  1  0
 13 14  2  0
 14 15  1  0
 15 16  1  0
 15 17  1  0
 17 18  1  0
 10 19  1  0
 19 20  2  0
 20  7  1  0
 17 12  2  0
  1 21  1  0
  1 22  1  0
  1 23  1  0
  2 24  1  0
  2 25  1  0
  3 26  1  0
  6 27  1  0
  6 28  1  0
  8 29  1  0
 11 30  1  0
 13 31  1  0
 16 32  1  0
 16 33  1  0
 16 34  1  0
 18 35  1  0
 18 36  1  0
 18 37  1  0
 20 38  1  0
M  END
>  <meeko>  (92) 
{"is_sidechain": false}

>  <vina_energy>  (92) 
-6.26

$$$$

     RDKit          3D

 41 42  0  0  0  0  0  0  0  0999 V2000
    9.7830    6.6590   45.4210 C   0  0  0  0  0  0  0  0  0  0  0  0
   10.7530    6.4540   44.2700 C   0  0  0  0  0  0  0  0  0  0  0  0
   11.3130    7.7100   43.8130 N   0  0  0  0  0  0  0  0  0  0  0  0
   12.6270    7.8130   43.4160 C   0  0  0  0  0  0  0  0  0  0  0  0
   13.3860    6.8540   43.3300 O   0  0  0  0  0  0  0  0  0  0  0  0
   13.0290    9.2290   43.0450 C   0  0  0  0  0  0  0  0  0  0  0  0
   13.6240    9.3260   41.6400 C   0  0  0  0  0  0  0  0  0  0  0  0
   14.8410   10.1990   41.5870 C   0  0  0  0  0  0  0  0  0  0  0  0
   15.9810    9.9440   42.3160 C   0  0  0  0  0  0  0  0  0  0  0  0
   17.0770   10.7310   42.2950 N   0  0  0  0  0  0  0  0  0  0  0  0
   17.0360   11.8250   41.5160 C   0  0  0  0  0  0  0  0  0  0  0  0
   18.1910   12.6060   41.5320 N   0  0  0  0  0  0  0  0  0  0  0  0
   18.3590   13.9430   41.5510 C   0  0  0  0  0  0  0  0  0  0  0  0
   18.5040   14.8170   42.6460 C   0  0  0  0  0  0  0  0  0  0  0  0
   18.6520   16.0900   42.2660 N   0  0  0  0  0  0  0  0  0  0  0  0
   18.5920   16.0260   40.9230 N   0  0  0  0  0  0  0  0  0  0  0  0
   18.7140   17.2450   40.1570 C   0  0  0  0  0  0  0  0  0  0  0  0
   18.4230   14.7520   40.4350 C   0  0  0  0  0  0  0  0  0  0  0  0
   18.3420   14.4520   38.9840 C   0  0  0  0  0  0  0  0  0  0  0  0
   15.9690   12.1610   40.7740 N   0  0  0  0  0  0  0  0  0  0  0  0
   14.9000   11.3440   40.8230 C   0  0  0  0  0  0  0  0  0  0  0  0
   10.3177    6.5460   46.3757 H   0  0  0  0  0  0  0  0  0  0  0  0
    9.3502    7.6685   45.3604 H   0  0  0  0  0  0  0  0  0  0  0  0
    8.9788    5.9110   45.3604 H   0  0  0  0  0  0  0  0  0  0  0  0
   11.5711    5.7995   44.6051 H   0  0  0  0  0  0  0  0  0  0  0  0
   10.2025    5.9986   43.4336 H   0  0  0  0  0  0  0  0  0  0  0  0
   10.7790    8.5530   43.9770 H   0  0  0  0  0  0  0  0  0  0  0  0
   12.1379    9.8720   43.0947 H   0  0  0  0  0  0  0  0  0  0  0  0
   13.8039    9.5509   43.7563 H   0  0  0  0  0  0  0  0  0  0  0  0
   13.9006    8.3157   41.3043 H   0  0  0  0  0  0  0  0  0  0  0  0
   12.8625    9.7770   40.9868 H   0  0  0  0  0  0  0  0  0  0  0  0
   15.9994    9.0469   42.9523 H   0  0  0  0  0  0  0  0  0  0  0  0
   18.9780   11.9730   41.5230 H   0  0  0  0  0  0  0  0  0  0  0  0
   18.4963   14.4889   43.6959 H   0  0  0  0  0  0  0  0  0  0  0  0
   18.7997   18.1014   40.8420 H   0  0  0  0  0  0  0  0  0  0  0  0
   19.6113   17.1914   39.5229 H   0  0  0  0  0  0  0  0  0  0  0  0
   17.8239   17.3703   39.5229 H   0  0  0  0  0  0  0  0  0  0  0  0
   18.0576   13.3988   38.8426 H   0  0  0  0  0  0  0  0  0  0  0  0
   17.5871   15.1015   38.5169 H   0  0  0  0  0  0  0  0  0  0  0  0
   19.3213   14.6333   38.5169 H   0  0  0  0  0  0  0  0  0  0  0  0
   14.0207   11.6065   40.2165 H   0  0  0  0  0  0  0  0  0  0  0  0
  1  2  1  0
  2  3  1  0
  3  4  1  0
  4  5  2  0
  4  6  1  0
  6  7  1  0
  7  8  1  0
  8  9  2  0
  9 10  1  0
 10 11  2  0
 11 12  1  0
 12 13  1  0
 13 14  1  0
 14 15  2  0
 15 16  1  0
 16 17  1  0
 16 18  1  0
 18 19  1  0
 11 20  1  0
 20 21  2  0
 21  8  1  0
 18 13  2  0
  1 22  1  0
  1 23  1  0
  1 24  1  0
  2 25  1  0
  2 26  1  0
  3 27  1  0
  6 28  1  0
  6 29  1  0
  7 30  1  0
  7 31  1  0
  9 32  1  0
 12 33  1  0
 14 34  1  0
 17 35  1  0
 17 36  1  0
 17 37  1  0
 19 38  1  0
 19 39  1  0
 19 40  1  0
 21 41  1  0
M  END
>  <meeko>  (93) 
{"is_sidechain": false}

>  <vina_energy>  (93) 
-6.53

$$$$

     RDKit          3D

 41 42  0  0  0  0  0  0  0  0999 V2000
   19.0090   14.7110   39.3020 C   0  0  0  0  0  0  0  0  0  0  0  0
   18.8490   14.9320   40.7620 C   0  0  0  0  0  0  0  0  0  0  0  0
   18.5450   14.0740   41.7990 C   0  0  0  0  0  0  0  0  0  0  0  0
   18.3120   12.7540   41.6730 N   0  0  0  0  0  0  0  0  0  0  0  0
   17.1200   12.0450   41.5270 C   0  0  0  0  0  0  0  0  0  0  0  0
   16.8790   10.9220   42.2210 N   0  0  0  0  0  0  0  0  0  0  0  0
   15.7040   10.3000   42.0190 C   0  0  0  0  0  0  0  0  0  0  0  0
   14.7350   10.7610   41.1580 C   0  0  0  0  0  0  0  0  0  0  0  0
   13.4110   10.0970   41.0020 C   0  0  0  0  0  0  0  0  0  0  0  0
   12.9740    9.5140   42.2600 N   0  0  0  0  0  0  0  0  0  0  0  0
   12.8250    8.1580   42.3930 C   0  0  0  0  0  0  0  0  0  0  0  0
   12.9600    7.3590   41.4660 O   0  0  0  0  0  0  0  0  0  0  0  0
   12.4260    7.6300   43.7810 C   0  0  2  0  0  0  0  0  0  0  0  0
   12.2030    6.1280   43.7750 C   0  0  0  0  0  0  0  0  0  0  0  0
   11.1480    8.2990   44.2050 N   0  0  0  0  0  0  0  0  0  0  0  0
   15.0690   11.9180   40.4920 C   0  0  0  0  0  0  0  0  0  0  0  0
   16.2360   12.5700   40.6600 N   0  0  0  0  0  0  0  0  0  0  0  0
   18.5410   14.8840   42.9540 C   0  0  0  0  0  0  0  0  0  0  0  0
   18.8120   16.1630   42.6800 N   0  0  0  0  0  0  0  0  0  0  0  0
   19.0080   16.1670   41.3470 N   0  0  0  0  0  0  0  0  0  0  0  0
   19.3420   17.4110   40.6910 C   0  0  0  0  0  0  0  0  0  0  0  0
   19.6463   13.8307   39.1321 H   0  0  0  0  0  0  0  0  0  0  0  0
   18.0221   14.5426   38.8463 H   0  0  0  0  0  0  0  0  0  0  0  0
   19.4771   15.5960   38.8463 H   0  0  0  0  0  0  0  0  0  0  0  0
   19.0700   12.0850   41.6780 H   0  0  0  0  0  0  0  0  0  0  0  0
   15.5065    9.3706   42.5732 H   0  0  0  0  0  0  0  0  0  0  0  0
   12.6709   10.8414   40.6732 H   0  0  0  0  0  0  0  0  0  0  0  0
   13.5050    9.2945   40.2555 H   0  0  0  0  0  0  0  0  0  0  0  0
   12.9850   10.1210   43.0740 H   0  0  0  0  0  0  0  0  0  0  0  0
   13.2478    7.8538   44.4771 H   0  0  0  0  0  0  0  0  0  0  0  0
   12.1486    5.7613   44.8106 H   0  0  0  0  0  0  0  0  0  0  0  0
   11.2610    5.8992   43.2550 H   0  0  0  0  0  0  0  0  0  0  0  0
   13.0379    5.6354   43.2550 H   0  0  0  0  0  0  0  0  0  0  0  0
   10.7010    7.8790   45.0270 H   0  0  0  0  0  0  0  0  0  0  0  0
   11.3230    9.2970   44.3880 H   0  0  0  0  0  0  0  0  0  0  0  0
   10.4870    8.2980   43.4130 H   0  0  0  0  0  0  0  0  0  0  0  0
   14.3406   12.3349   39.7809 H   0  0  0  0  0  0  0  0  0  0  0  0
   18.3376   14.5050   43.9664 H   0  0  0  0  0  0  0  0  0  0  0  0
   19.5488   18.1811   41.4487 H   0  0  0  0  0  0  0  0  0  0  0  0
   20.2331   17.2664   40.0625 H   0  0  0  0  0  0  0  0  0  0  0  0
   18.4983   17.7322   40.0625 H   0  0  0  0  0  0  0  0  0  0  0  0
  1  2  1  0
  2  3  2  0
  3  4  1  0
  4  5  1  0
  5  6  2  0
  6  7  1  0
  7  8  2  0
  8  9  1  0
  9 10  1  0
 10 11  1  0
 11 12  2  0
 11 13  1  0
 13 14  1  0
 13 15  1  0
  8 16  1  0
 16 17  2  0
  3 18  1  0
 18 19  2  0
 19 20  1  0
 20 21  1  0
 20  2  1  0
 17  5  1  0
  1 22  1  0
  1 23  1  0
  1 24  1  0
  4 25  1  0
  7 26  1  0
  9 27  1  0
  9 28  1  0
 10 29  1  0
 13 30  1  1
 14 31  1  0
 14 32  1  0
 14 33  1  0
 15 34  1  0
 15 35  1  0
 15 36  1  0
 16 37  1  0
 18 38  1  0
 21 39  1  0
 21 40  1  0
 21 41  1  0
M  CHG  1  15   1
M  END
>  <meeko>  (94) 
{"is_sidechain": false}

>  <vina_energy>  (94) 
-6.37

$$$$

     RDKit          3D

 40 41  0  0  0  0  0  0  0  0999 V2000
    9.8550    6.8650   44.4170 C   0  0  0  0  0  0  0  0  0  0  0  0
   11.2590    7.3880   44.6490 C   0  0  0  0  0  0  0  0  0  0  0  0
   11.5840    8.4530   43.7210 N   0  0  0  0  0  0  0  0  0  0  0  0
   12.6000    8.2650   42.8160 C   0  0  0  0  0  0  0  0  0  0  0  0
   13.3230    7.2810   42.7750 O   0  0  0  0  0  0  0  0  0  0  0  0
   12.6970    9.3320   41.9610 N   0  0  0  0  0  0  0  0  0  0  0  0
   13.7420    9.3780   40.9630 C   0  0  0  0  0  0  0  0  0  0  0  0
   14.7380   10.4490   41.2570 C   0  0  0  0  0  0  0  0  0  0  0  0
   15.8290   10.2490   42.0690 C   0  0  0  0  0  0  0  0  0  0  0  0
   16.7440   11.2020   42.3440 N   0  0  0  0  0  0  0  0  0  0  0  0
   16.5730   12.4060   41.7780 C   0  0  0  0  0  0  0  0  0  0  0  0
   17.4660   13.4540   42.0040 N   0  0  0  0  0  0  0  0  0  0  0  0
   18.6400   13.7610   41.4190 C   0  0  0  0  0  0  0  0  0  0  0  0
   19.9570   13.5620   41.8820 C   0  0  0  0  0  0  0  0  0  0  0  0
   20.8720   13.9990   41.0110 N   0  0  0  0  0  0  0  0  0  0  0  0
   20.1350   14.4740   39.9900 N   0  0  0  0  0  0  0  0  0  0  0  0
   20.8090   15.0390   38.8430 C   0  0  0  0  0  0  0  0  0  0  0  0
   18.7800   14.3610   40.1840 C   0  0  0  0  0  0  0  0  0  0  0  0
   17.7850   14.8280   39.1870 C   0  0  0  0  0  0  0  0  0  0  0  0
   15.5460   12.6970   40.9610 N   0  0  0  0  0  0  0  0  0  0  0  0
   14.6560   11.7130   40.7170 C   0  0  0  0  0  0  0  0  0  0  0  0
    9.3667    6.6831   45.3858 H   0  0  0  0  0  0  0  0  0  0  0  0
    9.2763    7.6079   43.8485 H   0  0  0  0  0  0  0  0  0  0  0  0
    9.9033    5.9246   43.8485 H   0  0  0  0  0  0  0  0  0  0  0  0
   11.3327    7.7732   45.6767 H   0  0  0  0  0  0  0  0  0  0  0  0
   11.9679    6.5617   44.4915 H   0  0  0  0  0  0  0  0  0  0  0  0
   10.7960    8.9480   43.3280 H   0  0  0  0  0  0  0  0  0  0  0  0
   12.3900   10.2100   42.3530 H   0  0  0  0  0  0  0  0  0  0  0  0
   14.2582    8.4069   40.9422 H   0  0  0  0  0  0  0  0  0  0  0  0
   13.2781    9.5984   39.9902 H   0  0  0  0  0  0  0  0  0  0  0  0
   15.9639    9.2551   42.5205 H   0  0  0  0  0  0  0  0  0  0  0  0
   17.0790   14.0220   42.7460 H   0  0  0  0  0  0  0  0  0  0  0  0
   20.2033   13.0999   42.8494 H   0  0  0  0  0  0  0  0  0  0  0  0
   21.6107   15.7110   39.1831 H   0  0  0  0  0  0  0  0  0  0  0  0
   21.2416   14.2297   38.2365 H   0  0  0  0  0  0  0  0  0  0  0  0
   20.0876   15.6063   38.2365 H   0  0  0  0  0  0  0  0  0  0  0  0
   16.9084   15.2394   39.7088 H   0  0  0  0  0  0  0  0  0  0  0  0
   18.2361   15.6084   38.5566 H   0  0  0  0  0  0  0  0  0  0  0  0
   17.4729   13.9823   38.5566 H   0  0  0  0  0  0  0  0  0  0  0  0
   13.8132   11.9339   40.0455 H   0  0  0  0  0  0  0  0  0  0  0  0
  1  2  1  0
  2  3  1  0
  3  4  1  0
  4  5  2  0
  4  6  1  0
  6  7  1  0
  7  8  1  0
  8  9  2  0
  9 10  1  0
 10 11  2  0
 11 12  1  0
 12 13  1  0
 13 14  1  0
 14 15  2  0
 15 16  1  0
 16 17  1  0
 16 18  1  0
 18 19  1  0
 11 20  1  0
 20 21  2  0
 21  8  1  0
 18 13  2  0
  1 22  1  0
  1 23  1  0
  1 24  1  0
  2 25  1  0
  2 26  1  0
  3 27  1  0
  6 28  1  0
  7 29  1  0
  7 30  1  0
  9 31  1  0
 12 32  1  0
 14 33  1  0
 17 34  1  0
 17 35  1  0
 17 36  1  0
 19 37  1  0
 19 38  1  0
 19 39  1  0
 21 40  1  0
M  END
>  <meeko>  (95) 
{"is_sidechain": false}

>  <vina_energy>  (95) 
-6.75

$$$$

     RDKit          3D

 33 34  0  0  0  0  0  0  0  0999 V2000
   10.3660    4.3170   45.1970 C   0  0  0  0  0  0  0  0  0  0  0  0
    9.5240    5.5580   45.0510 C   0  0  0  0  0  0  0  0  0  0  0  0
    8.4020    5.5000   44.5480 O   0  0  0  0  0  0  0  0  0  0  0  0
   10.1670    6.8580   45.5030 C   0  0  0  0  0  0  0  0  0  0  0  0
   11.2710    7.3570   44.6220 C   0  0  0  0  0  0  0  0  0  0  0  0
   12.0010    6.5220   43.8040 C   0  0  0  0  0  0  0  0  0  0  0  0
   12.9760    6.9430   42.9770 N   0  0  0  0  0  0  0  0  0  0  0  0
   13.2470    8.2580   42.9600 C   0  0  0  0  0  0  0  0  0  0  0  0
   14.2420    8.7880   42.1370 N   0  0  0  0  0  0  0  0  0  0  0  0
   14.2340    9.8470   41.3050 C   0  0  0  0  0  0  0  0  0  0  0  0
   13.2740   10.2370   40.3500 C   0  0  0  0  0  0  0  0  0  0  0  0
   13.6180   11.3570   39.7110 N   0  0  0  0  0  0  0  0  0  0  0  0
   14.8080   11.6770   40.2530 N   0  0  0  0  0  0  0  0  0  0  0  0
   15.4960   12.8590   39.7870 C   0  0  0  0  0  0  0  0  0  0  0  0
   15.2250   10.8040   41.2290 C   0  0  0  0  0  0  0  0  0  0  0  0
   16.5020   10.9740   41.9650 C   0  0  0  0  0  0  0  0  0  0  0  0
   12.5910    9.1530   43.7160 N   0  0  0  0  0  0  0  0  0  0  0  0
   11.6250    8.6840   44.5320 C   0  0  0  0  0  0  0  0  0  0  0  0
   10.5145    4.0982   46.2647 H   0  0  0  0  0  0  0  0  0  0  0  0
    9.8559    3.4692   44.7164 H   0  0  0  0  0  0  0  0  0  0  0  0
   11.3423    4.4777   44.7164 H   0  0  0  0  0  0  0  0  0  0  0  0
    9.3849    7.6306   45.5410 H   0  0  0  0  0  0  0  0  0  0  0  0
   10.6240    6.6513   46.4820 H   0  0  0  0  0  0  0  0  0  0  0  0
   11.7730    5.4462   43.8284 H   0  0  0  0  0  0  0  0  0  0  0  0
   15.0600    8.2030   42.2460 H   0  0  0  0  0  0  0  0  0  0  0  0
   12.3455    9.6809   40.1533 H   0  0  0  0  0  0  0  0  0  0  0  0
   15.8389   13.4480   40.6504 H   0  0  0  0  0  0  0  0  0  0  0  0
   16.3627   12.5626   39.1779 H   0  0  0  0  0  0  0  0  0  0  0  0
   14.8102   13.4662   39.1779 H   0  0  0  0  0  0  0  0  0  0  0  0
   16.3076   10.9481   43.0474 H   0  0  0  0  0  0  0  0  0  0  0  0
   17.1911   10.1597   41.6966 H   0  0  0  0  0  0  0  0  0  0  0  0
   16.9541   11.9402   41.6966 H   0  0  0  0  0  0  0  0  0  0  0  0
   11.0873    9.4060   45.1641 H   0  0  0  0  0  0  0  0  0  0  0  0
  1  2  1  0
  2  3  2  0
  2  4  1  0
  4  5  1  0
  5  6  2  0
  6  7  1  0
  7  8  2  0
  8  9  1  0
  9 10  1  0
 10 11  1  0
 11 12  2  0
 12 13  1  0
 13 14  1  0
 13 15  1  0
 15 16  1  0
  8 17  1  0
 17 18  2  0
 18  5  1  0
 15 10  2  0
  1 19  1  0
  1 20  1  0
  1 21  1  0
  4 22  1  0
  4 23  1  0
  6 24  1  0
  9 25  1  0
 11 26  1  0
 14 27  1  0
 14 28  1  0
 14 29  1  0
 16 30  1  0
 16 31  1  0
 16 32  1  0
 18 33  1  0
M  END
>  <meeko>  (96) 
{"is_sidechain": false}

>  <vina_energy>  (96) 
-7.24

$$$$

     RDKit          3D

 35 36  0  0  0  0  0  0  0  0999 V2000
    8.1510    8.5940   46.6110 C   0  0  0  0  0  0  0  0  0  0  0  0
    8.8680    7.2570   46.5900 C   0  0  0  0  0  0  0  0  0  0  0  0
    8.8750    6.6860   45.2830 O   0  0  0  0  0  0  0  0  0  0  0  0
   10.0150    5.8680   45.0270 C   0  0  0  0  0  0  0  0  0  0  0  0
   11.0780    6.6700   44.3510 C   0  0  0  0  0  0  0  0  0  0  0  0
   11.2470    8.0220   44.5370 C   0  0  0  0  0  0  0  0  0  0  0  0
   12.2370    8.7430   43.9690 N   0  0  0  0  0  0  0  0  0  0  0  0
   13.1020    8.0900   43.1800 C   0  0  0  0  0  0  0  0  0  0  0  0
   14.1560    8.7490   42.5450 N   0  0  0  0  0  0  0  0  0  0  0  0
   14.1590    9.7270   41.6180 C   0  0  0  0  0  0  0  0  0  0  0  0
   13.1850   10.0620   40.6570 C   0  0  0  0  0  0  0  0  0  0  0  0
   13.5490   11.1070   39.9080 N   0  0  0  0  0  0  0  0  0  0  0  0
   14.7570   11.4400   40.3960 N   0  0  0  0  0  0  0  0  0  0  0  0
   15.4670   12.5550   39.8110 C   0  0  0  0  0  0  0  0  0  0  0  0
   15.1800   10.6360   41.4280 C   0  0  0  0  0  0  0  0  0  0  0  0
   16.4850   10.8220   42.1070 C   0  0  0  0  0  0  0  0  0  0  0  0
   13.0300    6.7680   42.9440 N   0  0  0  0  0  0  0  0  0  0  0  0
   12.0250    6.0910   43.5370 C   0  0  0  0  0  0  0  0  0  0  0  0
    7.9845    8.9044   47.6531 H   0  0  0  0  0  0  0  0  0  0  0  0
    8.7658    9.3479   46.0976 H   0  0  0  0  0  0  0  0  0  0  0  0
    7.1828    8.4990   46.0976 H   0  0  0  0  0  0  0  0  0  0  0  0
    9.9067    7.4036   46.9212 H   0  0  0  0  0  0  0  0  0  0  0  0
    8.3346    6.5697   47.2631 H   0  0  0  0  0  0  0  0  0  0  0  0
   10.4037    5.4768   45.9788 H   0  0  0  0  0  0  0  0  0  0  0  0
    9.7212    5.0339   44.3728 H   0  0  0  0  0  0  0  0  0  0  0  0
   10.5326    8.5476   45.1877 H   0  0  0  0  0  0  0  0  0  0  0  0
   15.0140    8.3590   42.9080 H   0  0  0  0  0  0  0  0  0  0  0  0
   12.2329    9.5244   40.5368 H   0  0  0  0  0  0  0  0  0  0  0  0
   15.8725   13.1918   40.6110 H   0  0  0  0  0  0  0  0  0  0  0  0
   16.2920   12.1784   39.1884 H   0  0  0  0  0  0  0  0  0  0  0  0
   14.7768   13.1432   39.1884 H   0  0  0  0  0  0  0  0  0  0  0  0
   16.3375   10.8010   43.1969 H   0  0  0  0  0  0  0  0  0  0  0  0
   17.1695   10.0123   41.8139 H   0  0  0  0  0  0  0  0  0  0  0  0
   16.9161   11.7907   41.8139 H   0  0  0  0  0  0  0  0  0  0  0  0
   11.9581    5.0076   43.3587 H   0  0  0  0  0  0  0  0  0  0  0  0
  1  2  1  0
  2  3  1  0
  3  4  1  0
  4  5  1  0
  5  6  2  0
  6  7  1  0
  7  8  2  0
  8  9  1  0
  9 10  1  0
 10 11  1  0
 11 12  2  0
 12 13  1  0
 13 14  1  0
 13 15  1  0
 15 16  1  0
  8 17  1  0
 17 18  2  0
 18  5  1  0
 15 10  2  0
  1 19  1  0
  1 20  1  0
  1 21  1  0
  2 22  1  0
  2 23  1  0
  4 24  1  0
  4 25  1  0
  6 26  1  0
  9 27  1  0
 11 28  1  0
 14 29  1  0
 14 30  1  0
 14 31  1  0
 16 32  1  0
 16 33  1  0
 16 34  1  0
 18 35  1  0
M  END
>  <meeko>  (97) 
{"is_sidechain": false}

>  <vina_energy>  (97) 
-6.59

$$$$

     RDKit          3D

 36 37  0  0  0  0  0  0  0  0999 V2000
   10.4310    4.6410   45.0200 C   0  0  0  0  0  0  0  0  0  0  0  0
    9.9630    6.0700   44.9390 C   0  0  0  0  0  0  0  0  0  0  0  0
    8.8080    6.3810   45.2260 O   0  0  0  0  0  0  0  0  0  0  0  0
   10.9900    7.0880   44.4820 C   0  0  0  0  0  0  0  0  0  0  0  0
   11.9800    6.4890   43.4840 C   0  0  0  0  0  0  0  0  0  0  0  0
   12.6810    7.5510   42.6970 C   0  0  0  0  0  0  0  0  0  0  0  0
   13.3720    8.5850   43.2880 C   0  0  0  0  0  0  0  0  0  0  0  0
   13.9840    9.5690   42.6010 N   0  0  0  0  0  0  0  0  0  0  0  0
   13.9060    9.5220   41.2600 C   0  0  0  0  0  0  0  0  0  0  0  0
   14.5570   10.5610   40.5910 N   0  0  0  0  0  0  0  0  0  0  0  0
   15.6720   11.2520   40.8990 C   0  0  0  0  0  0  0  0  0  0  0  0
   16.7390   10.9090   41.7530 C   0  0  0  0  0  0  0  0  0  0  0  0
   17.6750   11.8610   41.8040 N   0  0  0  0  0  0  0  0  0  0  0  0
   17.1980   12.8180   40.9870 N   0  0  0  0  0  0  0  0  0  0  0  0
   17.9660   14.0270   40.8000 C   0  0  0  0  0  0  0  0  0  0  0  0
   15.9940   12.4990   40.4030 C   0  0  0  0  0  0  0  0  0  0  0  0
   15.2960   13.4040   39.4570 C   0  0  0  0  0  0  0  0  0  0  0  0
   13.2540    8.5570   40.5930 N   0  0  0  0  0  0  0  0  0  0  0  0
   12.6590    7.5940   41.3210 C   0  0  0  0  0  0  0  0  0  0  0  0
   10.5276    4.3461   46.0753 H   0  0  0  0  0  0  0  0  0  0  0  0
    9.7001    3.9870   44.5219 H   0  0  0  0  0  0  0  0  0  0  0  0
   11.4072    4.5461   44.5219 H   0  0  0  0  0  0  0  0  0  0  0  0
   10.4680    7.9298   44.0036 H   0  0  0  0  0  0  0  0  0  0  0  0
   11.5552    7.4223   45.3645 H   0  0  0  0  0  0  0  0  0  0  0  0
   12.7286    5.8998   44.0340 H   0  0  0  0  0  0  0  0  0  0  0  0
   11.4188    5.8550   42.7818 H   0  0  0  0  0  0  0  0  0  0  0  0
   13.4276    8.6090   44.3863 H   0  0  0  0  0  0  0  0  0  0  0  0
   14.0240   10.7590   39.7550 H   0  0  0  0  0  0  0  0  0  0  0  0
   16.7950    9.9645   42.3141 H   0  0  0  0  0  0  0  0  0  0  0  0
   18.2329   14.4472   41.7809 H   0  0  0  0  0  0  0  0  0  0  0  0
   18.8831   13.7957   40.2383 H   0  0  0  0  0  0  0  0  0  0  0  0
   17.3668   14.7588   40.2383 H   0  0  0  0  0  0  0  0  0  0  0  0
   14.7196   14.1513   40.0221 H   0  0  0  0  0  0  0  0  0  0  0  0
   16.0366   13.9144   38.8237 H   0  0  0  0  0  0  0  0  0  0  0  0
   14.6142   12.8173   38.8237 H   0  0  0  0  0  0  0  0  0  0  0  0
   12.1244    6.7953   40.7859 H   0  0  0  0  0  0  0  0  0  0  0  0
  1  2  1  0
  2  3  2  0
  2  4  1  0
  4  5  1  0
  5  6  1  0
  6  7  2  0
  7  8  1  0
  8  9  2  0
  9 10  1  0
 10 11  1  0
 11 12  1  0
 12 13  2  0
 13 14  1  0
 14 15  1  0
 14 16  1  0
 16 17  1  0
  9 18  1  0
 18 19  2  0
 19  6  1  0
 16 11  2  0
  1 20  1  0
  1 21  1  0
  1 22  1  0
  4 23  1  0
  4 24  1  0
  5 25  1  0
  5 26  1  0
  7 27  1  0
 10 28  1  0
 12 29  1  0
 15 30  1  0
 15 31  1  0
 15 32  1  0
 17 33  1  0
 17 34  1  0
 17 35  1  0
 19 36  1  0
M  END
>  <meeko>  (98) 
{"is_sidechain": false}

>  <vina_energy>  (98) 
-6.83

$$$$

     RDKit          3D

 37 38  0  0  0  0  0  0  0  0999 V2000
    9.2200    4.4490   44.8760 C   0  0  0  0  0  0  0  0  0  0  0  0
   10.5780    4.9610   45.3150 C   0  0  0  0  0  0  0  0  0  0  0  0
   10.5880    6.3960   45.3230 O   0  0  0  0  0  0  0  0  0  0  0  0
   10.7360    6.9960   44.1060 C   0  0  0  0  0  0  0  0  0  0  0  0
    9.9130    7.7310   43.5810 O   0  0  0  0  0  0  0  0  0  0  0  0
   12.0580    6.5740   43.5010 C   0  0  0  0  0  0  0  0  0  0  0  0
   12.7420    7.6440   42.7070 C   0  0  0  0  0  0  0  0  0  0  0  0
   13.4490    8.6740   43.2870 C   0  0  0  0  0  0  0  0  0  0  0  0
   14.0510    9.6590   42.5900 N   0  0  0  0  0  0  0  0  0  0  0  0
   13.9580    9.6120   41.2510 C   0  0  0  0  0  0  0  0  0  0  0  0
   14.6010   10.6480   40.5740 N   0  0  0  0  0  0  0  0  0  0  0  0
   15.7160   11.3440   40.8710 C   0  0  0  0  0  0  0  0  0  0  0  0
   16.7780   11.0190   41.7370 C   0  0  0  0  0  0  0  0  0  0  0  0
   17.7170   11.9680   41.7690 N   0  0  0  0  0  0  0  0  0  0  0  0
   17.2480   12.9070   40.9270 N   0  0  0  0  0  0  0  0  0  0  0  0
   18.0200   14.1090   40.7140 C   0  0  0  0  0  0  0  0  0  0  0  0
   16.0440   12.5790   40.3480 C   0  0  0  0  0  0  0  0  0  0  0  0
   15.3500   13.4660   39.3820 C   0  0  0  0  0  0  0  0  0  0  0  0
   13.2970    8.6460   40.5950 N   0  0  0  0  0  0  0  0  0  0  0  0
   12.7070    7.6860   41.3320 C   0  0  0  0  0  0  0  0  0  0  0  0
    8.6106    4.2193   45.7625 H   0  0  0  0  0  0  0  0  0  0  0  0
    8.7152    5.2185   44.2735 H   0  0  0  0  0  0  0  0  0  0  0  0
    9.3489    3.5378   44.2735 H   0  0  0  0  0  0  0  0  0  0  0  0
   10.7960    4.5905   46.3275 H   0  0  0  0  0  0  0  0  0  0  0  0
   11.3422    4.6008   44.6105 H   0  0  0  0  0  0  0  0  0  0  0  0
   12.7288    6.2690   44.3176 H   0  0  0  0  0  0  0  0  0  0  0  0
   11.8368    5.7549   42.8009 H   0  0  0  0  0  0  0  0  0  0  0  0
   13.5272    8.6943   44.3840 H   0  0  0  0  0  0  0  0  0  0  0  0
   14.0580   10.8440   39.7430 H   0  0  0  0  0  0  0  0  0  0  0  0
   16.8283   10.0883   42.3212 H   0  0  0  0  0  0  0  0  0  0  0  0
   18.2986   14.5428   41.6857 H   0  0  0  0  0  0  0  0  0  0  0  0
   18.9304   13.8644   40.1471 H   0  0  0  0  0  0  0  0  0  0  0  0
   17.4190   14.8352   40.1471 H   0  0  0  0  0  0  0  0  0  0  0  0
   14.7624   14.2170   39.9305 H   0  0  0  0  0  0  0  0  0  0  0  0
   16.0939   13.9728   38.7497 H   0  0  0  0  0  0  0  0  0  0  0  0
   14.6792   12.8659   38.7497 H   0  0  0  0  0  0  0  0  0  0  0  0
   12.1648    6.8879   40.8036 H   0  0  0  0  0  0  0  0  0  0  0  0
  1  2  1  0
  2  3  1  0
  3  4  1  0
  4  5  2  0
  4  6  1  0
  6  7  1  0
  7  8  2  0
  8  9  1  0
  9 10  2  0
 10 11  1  0
 11 12  1  0
 12 13  1  0
 13 14  2  0
 14 15  1  0
 15 16  1  0
 15 17  1  0
 17 18  1  0
 10 19  1  0
 19 20  2  0
 20  7  1  0
 17 12  2  0
  1 21  1  0
  1 22  1  0
  1 23  1  0
  2 24  1  0
  2 25  1  0
  6 26  1  0
  6 27  1  0
  8 28  1  0
 11 29  1  0
 13 30  1  0
 16 31  1  0
 16 32  1  0
 16 33  1  0
 18 34  1  0
 18 35  1  0
 18 36  1  0
 20 37  1  0
M  END
>  <meeko>  (99) 
{"is_sidechain": false}

>  <vina_energy>  (99) 
-6.26

$$$$

     RDKit          3D

 40 41  0  0  0  0  0  0  0  0999 V2000
    9.9080    6.5100   45.1340 C   0  0  0  0  0  0  0  0  0  0  0  0
   10.7600    7.7290   44.8310 C   0  0  0  0  0  0  0  0  0  0  0  0
   11.2200    7.6850   43.4720 O   0  0  0  0  0  0  0  0  0  0  0  0
   12.5710    7.6990   43.3010 C   0  0  0  0  0  0  0  0  0  0  0  0
   13.2990    6.7170   43.3250 O   0  0  0  0  0  0  0  0  0  0  0  0
   13.0340    9.1170   43.0780 C   0  0  0  0  0  0  0  0  0  0  0  0
   13.4930    9.3270   41.6370 C   0  0  0  0  0  0  0  0  0  0  0  0
   14.7230   10.1770   41.5660 C   0  0  0  0  0  0  0  0  0  0  0  0
   14.8000   11.3110   40.7900 C   0  0  0  0  0  0  0  0  0  0  0  0
   15.8850   12.1050   40.7300 N   0  0  0  0  0  0  0  0  0  0  0  0
   16.9470   11.7600   41.4750 C   0  0  0  0  0  0  0  0  0  0  0  0
   18.1170   12.5200   41.4770 N   0  0  0  0  0  0  0  0  0  0  0  0
   18.3090   13.8540   41.4760 C   0  0  0  0  0  0  0  0  0  0  0  0
   18.5060   14.7370   42.5570 C   0  0  0  0  0  0  0  0  0  0  0  0
   18.6650   16.0020   42.1570 N   0  0  0  0  0  0  0  0  0  0  0  0
   18.5700   15.9230   40.8170 N   0  0  0  0  0  0  0  0  0  0  0  0
   18.6950   17.1310   40.0330 C   0  0  0  0  0  0  0  0  0  0  0  0
   18.3490   14.6490   40.3500 C   0  0  0  0  0  0  0  0  0  0  0  0
   18.2050   14.3380   38.9060 C   0  0  0  0  0  0  0  0  0  0  0  0
   16.9680   10.6740   42.2670 N   0  0  0  0  0  0  0  0  0  0  0  0
   15.8590    9.9090   42.2960 C   0  0  0  0  0  0  0  0  0  0  0  0
    9.8208    6.3852   46.2234 H   0  0  0  0  0  0  0  0  0  0  0  0
    8.9067    6.6452   44.6991 H   0  0  0  0  0  0  0  0  0  0  0  0
   10.3790    5.6161   44.6991 H   0  0  0  0  0  0  0  0  0  0  0  0
   10.1603    8.6386   44.9827 H   0  0  0  0  0  0  0  0  0  0  0  0
   11.6294    7.7366   45.5049 H   0  0  0  0  0  0  0  0  0  0  0  0
   12.2026    9.8042   43.2936 H   0  0  0  0  0  0  0  0  0  0  0  0
   13.8842    9.3155   43.7471 H   0  0  0  0  0  0  0  0  0  0  0  0
   13.7100    8.3476   41.1857 H   0  0  0  0  0  0  0  0  0  0  0  0
   12.6881    9.8424   41.0924 H   0  0  0  0  0  0  0  0  0  0  0  0
   13.9239   11.5843   40.1836 H   0  0  0  0  0  0  0  0  0  0  0  0
   18.8940   11.8730   41.4790 H   0  0  0  0  0  0  0  0  0  0  0  0
   18.5265   14.4206   43.6103 H   0  0  0  0  0  0  0  0  0  0  0  0
   18.7846   17.9969   40.7054 H   0  0  0  0  0  0  0  0  0  0  0  0
   19.5911   17.0652   39.3985 H   0  0  0  0  0  0  0  0  0  0  0  0
   17.8044   17.2501   39.3985 H   0  0  0  0  0  0  0  0  0  0  0  0
   17.7454   13.3455   38.7887 H   0  0  0  0  0  0  0  0  0  0  0  0
   17.5664   15.0964   38.4295 H   0  0  0  0  0  0  0  0  0  0  0  0
   19.1964   14.3416   38.4295 H   0  0  0  0  0  0  0  0  0  0  0  0
   15.8616    9.0179   42.9410 H   0  0  0  0  0  0  0  0  0  0  0  0
  1  2  1  0
  2  3  1  0
  3  4  1  0
  4  5  2  0
  4  6  1  0
  6  7  1  0
  7  8  1  0
  8  9  2  0
  9 10  1  0
 10 11  2  0
 11 12  1  0
 12 13  1  0
 13 14  1  0
 14 15  2  0
 15 16  1  0
 16 17  1  0
 16 18  1  0
 18 19  1  0
 11 20  1  0
 20 21  2  0
 21  8  1  0
 18 13  2  0
  1 22  1  0
  1 23  1  0
  1 24  1  0
  2 25  1  0
  2 26  1  0
  6 27  1  0
  6 28  1  0
  7 29  1  0
  7 30  1  0
  9 31  1  0
 12 32  1  0
 14 33  1  0
 17 34  1  0
 17 35  1  0
 17 36  1  0
 19 37  1  0
 19 38  1  0
 19 39  1  0
 21 40  1  0
M  END
>  <meeko>  (100) 
{"is_sidechain": false}

>  <vina_energy>  (100) 
-6.32

$$$$

     RDKit          3D

 39 40  0  0  0  0  0  0  0  0999 V2000
   10.0800    7.2490   45.4340 C   0  0  0  0  0  0  0  0  0  0  0  0
   10.7220    7.2280   44.0610 C   0  0  0  0  0  0  0  0  0  0  0  0
   11.6140    8.3420   43.9130 O   0  0  0  0  0  0  0  0  0  0  0  0
   12.6670    8.1460   43.0840 C   0  0  0  0  0  0  0  0  0  0  0  0
   13.4000    7.1680   43.0750 O   0  0  0  0  0  0  0  0  0  0  0  0
   12.7770    9.2130   42.2480 N   0  0  0  0  0  0  0  0  0  0  0  0
   13.7450    9.2680   41.1840 C   0  0  0  0  0  0  0  0  0  0  0  0
   14.7200   10.3800   41.3810 C   0  0  0  0  0  0  0  0  0  0  0  0
   14.5880   11.6080   40.7760 C   0  0  0  0  0  0  0  0  0  0  0  0
   15.4620   12.6200   40.9310 N   0  0  0  0  0  0  0  0  0  0  0  0
   16.5230   12.4040   41.7240 C   0  0  0  0  0  0  0  0  0  0  0  0
   17.4820   13.3920   41.9480 N   0  0  0  0  0  0  0  0  0  0  0  0
   18.6270   13.6820   41.2980 C   0  0  0  0  0  0  0  0  0  0  0  0
   19.9590   13.3810   41.6430 C   0  0  0  0  0  0  0  0  0  0  0  0
   20.8330   13.8380   40.7410 N   0  0  0  0  0  0  0  0  0  0  0  0
   20.0530   14.4270   39.8160 N   0  0  0  0  0  0  0  0  0  0  0  0
   20.6720   15.0430   38.6640 C   0  0  0  0  0  0  0  0  0  0  0  0
   18.7100   14.3690   40.1050 C   0  0  0  0  0  0  0  0  0  0  0  0
   17.6730   14.9630   39.2240 C   0  0  0  0  0  0  0  0  0  0  0  0
   16.7450   11.2380   42.3540 N   0  0  0  0  0  0  0  0  0  0  0  0
   15.8440   10.2520   42.1670 C   0  0  0  0  0  0  0  0  0  0  0  0
   10.8636    7.2234   46.2056 H   0  0  0  0  0  0  0  0  0  0  0  0
    9.4846    8.1671   45.5464 H   0  0  0  0  0  0  0  0  0  0  0  0
    9.4259    6.3718   45.5464 H   0  0  0  0  0  0  0  0  0  0  0  0
   11.2865    6.2919   43.9383 H   0  0  0  0  0  0  0  0  0  0  0  0
    9.9345    7.2952   43.2959 H   0  0  0  0  0  0  0  0  0  0  0  0
   12.0370    9.8970   42.3090 H   0  0  0  0  0  0  0  0  0  0  0  0
   14.2933    8.3149   41.1514 H   0  0  0  0  0  0  0  0  0  0  0  0
   13.2077    9.4465   40.2409 H   0  0  0  0  0  0  0  0  0  0  0  0
   13.7158   11.7731   40.1264 H   0  0  0  0  0  0  0  0  0  0  0  0
   17.1770   13.9270   42.7500 H   0  0  0  0  0  0  0  0  0  0  0  0
   20.2472   12.8321   42.5517 H   0  0  0  0  0  0  0  0  0  0  0  0
   21.4148   15.7822   38.9983 H   0  0  0  0  0  0  0  0  0  0  0  0
   21.1696   14.2711   38.0585 H   0  0  0  0  0  0  0  0  0  0  0  0
   19.9026   15.5444   38.0585 H   0  0  0  0  0  0  0  0  0  0  0  0
   16.8829   15.4156   39.8412 H   0  0  0  0  0  0  0  0  0  0  0  0
   18.1303   15.7361   38.5890 H   0  0  0  0  0  0  0  0  0  0  0  0
   17.2375   14.1774   38.5890 H   0  0  0  0  0  0  0  0  0  0  0  0
   16.0167    9.2898   42.6714 H   0  0  0  0  0  0  0  0  0  0  0  0
  1  2  1  0
  2  3  1  0
  3  4  1  0
  4  5  2  0
  4  6  1  0
  6  7  1  0
  7  8  1  0
  8  9  2  0
  9 10  1  0
 10 11  2  0
 11 12  1  0
 12 13  1  0
 13 14  1  0
 14 15  2  0
 15 16  1  0
 16 17  1  0
 16 18  1  0
 18 19  1  0
 11 20  1  0
 20 21  2  0
 21  8  1  0
 18 13  2  0
  1 22  1  0
  1 23  1  0
  1 24  1  0
  2 25  1  0
  2 26  1  0
  6 27  1  0
  7 28  1  0
  7 29  1  0
  9 30  1  0
 12 31  1  0
 14 32  1  0
 17 33  1  0
 17 34  1  0
 17 35  1  0
 19 36  1  0
 19 37  1  0
 19 38  1  0
 21 39  1  0
M  END
>  <meeko>  (101) 
{"is_sidechain": false}

>  <vina_energy>  (101) 
-6.59

$$$$

     RDKit          3D

 35 36  0  0  0  0  0  0  0  0999 V2000
    7.9360    8.3060   46.7850 C   0  0  0  0  0  0  0  0  0  0  0  0
    9.1290    7.5020   46.3430 C   0  0  0  0  0  0  0  0  0  0  0  0
   10.2320    7.6250   46.8660 O   0  0  0  0  0  0  0  0  0  0  0  0
    8.8680    6.6130   45.3250 N   0  0  0  0  0  0  0  0  0  0  0  0
    9.8820    5.7070   44.8340 C   0  0  0  0  0  0  0  0  0  0  0  0
   11.0100    6.4420   44.1930 C   0  0  0  0  0  0  0  0  0  0  0  0
   10.8770    7.7090   43.6720 C   0  0  0  0  0  0  0  0  0  0  0  0
   11.8780    8.3870   43.0750 N   0  0  0  0  0  0  0  0  0  0  0  0
   13.0720    7.7740   42.9930 C   0  0  0  0  0  0  0  0  0  0  0  0
   14.0780    8.5140   42.3700 N   0  0  0  0  0  0  0  0  0  0  0  0
   14.0150    9.5600   41.5240 C   0  0  0  0  0  0  0  0  0  0  0  0
   13.0230    9.8990   40.5810 C   0  0  0  0  0  0  0  0  0  0  0  0
   13.3130   11.0220   39.9190 N   0  0  0  0  0  0  0  0  0  0  0  0
   14.4970   11.3970   40.4360 N   0  0  0  0  0  0  0  0  0  0  0  0
   15.1300   12.5980   39.9420 C   0  0  0  0  0  0  0  0  0  0  0  0
   14.9660   10.5550   41.4160 C   0  0  0  0  0  0  0  0  0  0  0  0
   16.2490   10.7840   42.1260 C   0  0  0  0  0  0  0  0  0  0  0  0
   13.2980    6.5410   43.4680 N   0  0  0  0  0  0  0  0  0  0  0  0
   12.2670    5.9000   44.0550 C   0  0  0  0  0  0  0  0  0  0  0  0
    7.8979    8.3317   47.8840 H   0  0  0  0  0  0  0  0  0  0  0  0
    8.0210    9.3318   46.3970 H   0  0  0  0  0  0  0  0  0  0  0  0
    7.0171    7.8422   46.3970 H   0  0  0  0  0  0  0  0  0  0  0  0
    7.9070    6.4540   45.0500 H   0  0  0  0  0  0  0  0  0  0  0  0
   10.2727    5.1178   45.6767 H   0  0  0  0  0  0  0  0  0  0  0  0
    9.4228    5.0535   44.0776 H   0  0  0  0  0  0  0  0  0  0  0  0
    9.8946    8.1981   43.7472 H   0  0  0  0  0  0  0  0  0  0  0  0
   14.9630    8.1220   42.6610 H   0  0  0  0  0  0  0  0  0  0  0  0
   12.1129    9.3054   40.4099 H   0  0  0  0  0  0  0  0  0  0  0  0
   15.4560   13.2165   40.7912 H   0  0  0  0  0  0  0  0  0  0  0  0
   16.0025   12.3272   39.3293 H   0  0  0  0  0  0  0  0  0  0  0  0
   14.4134   13.1647   39.3293 H   0  0  0  0  0  0  0  0  0  0  0  0
   16.0776   10.7534   43.2121 H   0  0  0  0  0  0  0  0  0  0  0  0
   16.9680   10.0000   41.8461 H   0  0  0  0  0  0  0  0  0  0  0  0
   16.6524   11.7683   41.8461 H   0  0  0  0  0  0  0  0  0  0  0  0
   12.4408    4.8865   44.4456 H   0  0  0  0  0  0  0  0  0  0  0  0
  1  2  1  0
  2  3  2  0
  2  4  1  0
  4  5  1  0
  5  6  1  0
  6  7  2  0
  7  8  1  0
  8  9  2  0
  9 10  1  0
 10 11  1  0
 11 12  1  0
 12 13  2  0
 13 14  1  0
 14 15  1  0
 14 16  1  0
 16 17  1  0
  9 18  1  0
 18 19  2  0
 19  6  1  0
 16 11  2  0
  1 20  1  0
  1 21  1  0
  1 22  1  0
  4 23  1  0
  5 24  1  0
  5 25  1  0
  7 26  1  0
 10 27  1  0
 12 28  1  0
 15 29  1  0
 15 30  1  0
 15 31  1  0
 17 32  1  0
 17 33  1  0
 17 34  1  0
 19 35  1  0
M  END
>  <meeko>  (102) 
{"is_sidechain": false}

>  <vina_energy>  (102) 
-7.26

$$$$

     RDKit          3D

 38 39  0  0  0  0  0  0  0  0999 V2000
   10.0690    7.7260   45.8700 C   0  0  0  0  0  0  0  0  0  0  0  0
   10.1500    7.0760   44.5120 C   0  0  0  0  0  0  0  0  0  0  0  0
    9.5960    7.6060   43.5480 O   0  0  0  0  0  0  0  0  0  0  0  0
   10.8620    5.8870   44.4080 N   0  0  0  0  0  0  0  0  0  0  0  0
   10.3020    4.6840   45.0110 C   0  0  0  0  0  0  0  0  0  0  0  0
   12.2020    5.7670   43.8320 C   0  0  0  0  0  0  0  0  0  0  0  0
   12.6690    6.9970   43.1160 C   0  0  0  0  0  0  0  0  0  0  0  0
   12.5580    7.1230   41.7490 C   0  0  0  0  0  0  0  0  0  0  0  0
   12.9980    8.1880   41.0520 N   0  0  0  0  0  0  0  0  0  0  0  0
   13.5860    9.1790   41.7400 C   0  0  0  0  0  0  0  0  0  0  0  0
   14.0690   10.3240   41.1070 N   0  0  0  0  0  0  0  0  0  0  0  0
   15.2420   10.9760   41.2280 C   0  0  0  0  0  0  0  0  0  0  0  0
   16.3980   10.6250   41.9510 C   0  0  0  0  0  0  0  0  0  0  0  0
   17.3710   11.5330   41.8260 N   0  0  0  0  0  0  0  0  0  0  0  0
   16.8350   12.4610   41.0130 N   0  0  0  0  0  0  0  0  0  0  0  0
   17.6250   13.6140   40.6510 C   0  0  0  0  0  0  0  0  0  0  0  0
   15.5450   12.1810   40.6280 C   0  0  0  0  0  0  0  0  0  0  0  0
   14.7590   13.0770   39.7450 C   0  0  0  0  0  0  0  0  0  0  0  0
   13.7560    9.1440   43.0710 N   0  0  0  0  0  0  0  0  0  0  0  0
   13.2990    8.0570   43.7280 C   0  0  0  0  0  0  0  0  0  0  0  0
   10.1648    6.9571   46.6508 H   0  0  0  0  0  0  0  0  0  0  0  0
   10.8828    8.4586   45.9750 H   0  0  0  0  0  0  0  0  0  0  0  0
    9.1003    8.2365   45.9750 H   0  0  0  0  0  0  0  0  0  0  0  0
   10.3422    4.7703   46.1069 H   0  0  0  0  0  0  0  0  0  0  0  0
    9.2563    4.5659   44.6906 H   0  0  0  0  0  0  0  0  0  0  0  0
   10.8848    3.8078   44.6906 H   0  0  0  0  0  0  0  0  0  0  0  0
   12.9101    5.5502   44.6454 H   0  0  0  0  0  0  0  0  0  0  0  0
   12.1565    4.9612   43.0845 H   0  0  0  0  0  0  0  0  0  0  0  0
   12.0805    6.3032   41.1922 H   0  0  0  0  0  0  0  0  0  0  0  0
   13.3510   10.6390   40.4680 H   0  0  0  0  0  0  0  0  0  0  0  0
   16.4901    9.7075   42.5508 H   0  0  0  0  0  0  0  0  0  0  0  0
   17.9726   14.1213   41.5630 H   0  0  0  0  0  0  0  0  0  0  0  0
   18.4931   13.2919   40.0571 H   0  0  0  0  0  0  0  0  0  0  0  0
   17.0112   14.3072   40.0571 H   0  0  0  0  0  0  0  0  0  0  0  0
   14.1576   13.7626   40.3601 H   0  0  0  0  0  0  0  0  0  0  0  0
   15.4434   13.6587   39.1101 H   0  0  0  0  0  0  0  0  0  0  0  0
   14.0931   12.4741   39.1101 H   0  0  0  0  0  0  0  0  0  0  0  0
   13.4384    8.0157   44.8183 H   0  0  0  0  0  0  0  0  0  0  0  0
  1  2  1  0
  2  3  2  0
  2  4  1  0
  4  5  1  0
  4  6  1  0
  6  7  1  0
  7  8  2  0
  8  9  1  0
  9 10  2  0
 10 11  1  0
 11 12  1  0
 12 13  1  0
 13 14  2  0
 14 15  1  0
 15 16  1  0
 15 17  1  0
 17 18  1  0
 10 19  1  0
 19 20  2  0
 20  7  1  0
 17 12  2  0
  1 21  1  0
  1 22  1  0
  1 23  1  0
  5 24  1  0
  5 25  1  0
  5 26  1  0
  6 27  1  0
  6 28  1  0
  8 29  1  0
 11 30  1  0
 13 31  1  0
 16 32  1  0
 16 33  1  0
 16 34  1  0
 18 35  1  0
 18 36  1  0
 18 37  1  0
 20 38  1  0
M  END
>  <meeko>  (103) 
{"is_sidechain": false}

>  <vina_energy>  (103) 
-6.50

$$$$

     RDKit          3D

 38 39  0  0  0  0  0  0  0  0999 V2000
   10.4550    7.0480   44.2130 C   0  0  0  0  0  0  0  0  0  0  0  0
   11.8830    7.1040   43.7430 C   0  0  0  0  0  0  0  0  0  0  0  0
   12.6250    6.1280   43.7880 O   0  0  0  0  0  0  0  0  0  0  0  0
   12.2850    8.3380   43.2860 N   0  0  0  0  0  0  0  0  0  0  0  0
   13.6280    8.5590   42.7890 C   0  0  0  0  0  0  0  0  0  0  0  0
   13.6530    9.5040   41.5840 C   0  0  0  0  0  0  0  0  0  0  0  0
   14.8680   10.3750   41.5880 C   0  0  0  0  0  0  0  0  0  0  0  0
   15.9870   10.0830   42.3350 C   0  0  0  0  0  0  0  0  0  0  0  0
   17.1050   10.8370   42.3350 N   0  0  0  0  0  0  0  0  0  0  0  0
   17.1110   11.9300   41.5540 C   0  0  0  0  0  0  0  0  0  0  0  0
   18.2900   12.6770   41.5880 N   0  0  0  0  0  0  0  0  0  0  0  0
   18.4970   14.0030   41.7040 C   0  0  0  0  0  0  0  0  0  0  0  0
   18.6300   14.7960   42.8610 C   0  0  0  0  0  0  0  0  0  0  0  0
   18.8290   16.0870   42.5730 N   0  0  0  0  0  0  0  0  0  0  0  0
   18.8280   16.1130   41.2290 N   0  0  0  0  0  0  0  0  0  0  0  0
   19.0240   17.3740   40.5520 C   0  0  0  0  0  0  0  0  0  0  0  0
   18.6250   14.8820   40.6490 C   0  0  0  0  0  0  0  0  0  0  0  0
   18.5790   14.6850   39.1790 C   0  0  0  0  0  0  0  0  0  0  0  0
   16.0710   12.2920   40.7870 N   0  0  0  0  0  0  0  0  0  0  0  0
   14.9750   11.5110   40.8200 C   0  0  0  0  0  0  0  0  0  0  0  0
   10.4307    7.0470   45.3127 H   0  0  0  0  0  0  0  0  0  0  0  0
    9.9099    7.9255   43.8350 H   0  0  0  0  0  0  0  0  0  0  0  0
    9.9803    6.1305   43.8350 H   0  0  0  0  0  0  0  0  0  0  0  0
   11.6340    9.1140   43.2980 H   0  0  0  0  0  0  0  0  0  0  0  0
   14.2359    8.9966   43.5946 H   0  0  0  0  0  0  0  0  0  0  0  0
   14.0309    7.5883   42.4642 H   0  0  0  0  0  0  0  0  0  0  0  0
   13.6471    8.9051   40.6614 H   0  0  0  0  0  0  0  0  0  0  0  0
   12.7664   10.1528   41.6393 H   0  0  0  0  0  0  0  0  0  0  0  0
   15.9680    9.1835   42.9678 H   0  0  0  0  0  0  0  0  0  0  0  0
   19.0580   12.0250   41.5090 H   0  0  0  0  0  0  0  0  0  0  0  0
   18.5763   14.3984   43.8852 H   0  0  0  0  0  0  0  0  0  0  0  0
   19.1484   18.1743   41.2963 H   0  0  0  0  0  0  0  0  0  0  0  0
   19.9239   17.3160   39.9221 H   0  0  0  0  0  0  0  0  0  0  0  0
   18.1489   17.5919   39.9221 H   0  0  0  0  0  0  0  0  0  0  0  0
   18.3340   13.6358   38.9572 H   0  0  0  0  0  0  0  0  0  0  0  0
   17.8098   15.3408   38.7451 H   0  0  0  0  0  0  0  0  0  0  0  0
   19.5591   14.9323   38.7451 H   0  0  0  0  0  0  0  0  0  0  0  0
   14.1153   11.7980   40.1967 H   0  0  0  0  0  0  0  0  0  0  0  0
  1  2  1  0
  2  3  2  0
  2  4  1  0
  4  5  1  0
  5  6  1  0
  6  7  1  0
  7  8  2  0
  8  9  1  0
  9 10  2  0
 10 11  1  0
 11 12  1  0
 12 13  1  0
 13 14  2  0
 14 15  1  0
 15 16  1  0
 15 17  1  0
 17 18  1  0
 10 19  1  0
 19 20  2  0
 20  7  1  0
 17 12  2  0
  1 21  1  0
  1 22  1  0
  1 23  1  0
  4 24  1  0
  5 25  1  0
  5 26  1  0
  6 27  1  0
  6 28  1  0
  8 29  1  0
 11 30  1  0
 13 31  1  0
 16 32  1  0
 16 33  1  0
 16 34  1  0
 18 35  1  0
 18 36  1  0
 18 37  1  0
 20 38  1  0
M  END
>  <meeko>  (104) 
{"is_sidechain": false}

>  <vina_energy>  (104) 
-6.43

$$$$

     RDKit          3D

 41 42  0  0  0  0  0  0  0  0999 V2000
   11.5230    8.1170   44.8130 C   0  0  0  0  0  0  0  0  0  0  0  0
   12.5790    7.9960   43.7470 C   0  0  0  0  0  0  0  0  0  0  0  0
   13.3110    7.0160   43.6610 O   0  0  0  0  0  0  0  0  0  0  0  0
   12.6390    9.0700   42.8870 N   0  0  0  0  0  0  0  0  0  0  0  0
   13.5380    9.0770   41.7360 C   0  0  1  0  0  0  0  0  0  0  0  0
   13.0130    8.1240   40.6610 C   0  0  0  0  0  0  0  0  0  0  0  0
   13.7000   10.4990   41.1620 C   0  0  0  0  0  0  0  0  0  0  0  0
   15.0620   11.1220   41.2860 C   0  0  0  0  0  0  0  0  0  0  0  0
   15.3800   12.2730   40.5960 C   0  0  0  0  0  0  0  0  0  0  0  0
   16.5830   12.8760   40.6390 N   0  0  0  0  0  0  0  0  0  0  0  0
   17.5310   12.3020   41.3940 C   0  0  0  0  0  0  0  0  0  0  0  0
   18.8090   12.8500   41.5060 N   0  0  0  0  0  0  0  0  0  0  0  0
   19.2660   13.8950   42.2240 C   0  0  0  0  0  0  0  0  0  0  0  0
   18.5850   15.0390   42.6850 C   0  0  0  0  0  0  0  0  0  0  0  0
   19.3810   15.8630   43.3730 N   0  0  0  0  0  0  0  0  0  0  0  0
   20.5740   15.2400   43.3520 N   0  0  0  0  0  0  0  0  0  0  0  0
   21.6990   15.8570   44.0140 C   0  0  0  0  0  0  0  0  0  0  0  0
   20.5650   14.0490   42.6660 C   0  0  0  0  0  0  0  0  0  0  0  0
   21.7740   13.2020   42.5120 C   0  0  0  0  0  0  0  0  0  0  0  0
   17.3310   11.1720   42.0900 N   0  0  0  0  0  0  0  0  0  0  0  0
   16.1080   10.6050   42.0170 C   0  0  0  0  0  0  0  0  0  0  0  0
   11.9954    8.0629   45.8049 H   0  0  0  0  0  0  0  0  0  0  0  0
   11.0032    9.0806   44.7065 H   0  0  0  0  0  0  0  0  0  0  0  0
   10.7987    7.2960   44.7065 H   0  0  0  0  0  0  0  0  0  0  0  0
   11.8920    9.7520   42.9200 H   0  0  0  0  0  0  0  0  0  0  0  0
   14.5291    8.7353   42.0692 H   0  0  0  0  0  0  0  0  0  0  0  0
   12.5354    7.2571   41.1410 H   0  0  0  0  0  0  0  0  0  0  0  0
   12.2763    8.6481   40.0344 H   0  0  0  0  0  0  0  0  0  0  0  0
   13.8497    7.7814   40.0344 H   0  0  0  0  0  0  0  0  0  0  0  0
   13.4475   10.4581   40.0921 H   0  0  0  0  0  0  0  0  0  0  0  0
   13.0341   11.1336   41.7652 H   0  0  0  0  0  0  0  0  0  0  0  0
   14.5992   12.7284   39.9691 H   0  0  0  0  0  0  0  0  0  0  0  0
   19.4220   12.3050   40.9150 H   0  0  0  0  0  0  0  0  0  0  0  0
   17.5181   15.2322   42.4995 H   0  0  0  0  0  0  0  0  0  0  0  0
   21.5678   15.7850   45.1038 H   0  0  0  0  0  0  0  0  0  0  0  0
   22.6251   15.3405   43.7213 H   0  0  0  0  0  0  0  0  0  0  0  0
   21.7613   16.9155   43.7213 H   0  0  0  0  0  0  0  0  0  0  0  0
   22.1608   12.9310   43.5054 H   0  0  0  0  0  0  0  0  0  0  0  0
   21.5133   12.2880   41.9582 H   0  0  0  0  0  0  0  0  0  0  0  0
   22.5440   13.7592   41.9582 H   0  0  0  0  0  0  0  0  0  0  0  0
   15.9367    9.6730   42.5756 H   0  0  0  0  0  0  0  0  0  0  0  0
  1  2  1  0
  2  3  2  0
  2  4  1  0
  4  5  1  0
  5  6  1  0
  5  7  1  0
  7  8  1  0
  8  9  2  0
  9 10  1  0
 10 11  2  0
 11 12  1  0
 12 13  1  0
 13 14  1  0
 14 15  2  0
 15 16  1  0
 16 17  1  0
 16 18  1  0
 18 19  1  0
 11 20  1  0
 20 21  2  0
 21  8  1  0
 18 13  2  0
  1 22  1  0
  1 23  1  0
  1 24  1  0
  4 25  1  0
  5 26  1  1
  6 27  1  0
  6 28  1  0
  6 29  1  0
  7 30  1  0
  7 31  1  0
  9 32  1  0
 12 33  1  0
 14 34  1  0
 17 35  1  0
 17 36  1  0
 17 37  1  0
 19 38  1  0
 19 39  1  0
 19 40  1  0
 21 41  1  0
M  END
>  <meeko>  (105) 
{"is_sidechain": false}

>  <vina_energy>  (105) 
-6.36

$$$$

     RDKit          3D

 34 35  0  0  0  0  0  0  0  0999 V2000
   10.3630    4.9920   45.1680 C   0  0  0  0  0  0  0  0  0  0  0  0
    9.8160    6.3850   45.1400 C   0  0  0  0  0  0  0  0  0  0  0  0
    8.6760    6.6910   45.4560 O   0  0  0  0  0  0  0  0  0  0  0  0
   10.7720    7.2550   44.7150 O   0  0  0  0  0  0  0  0  0  0  0  0
   11.8390    6.6280   44.0000 C   0  0  0  0  0  0  0  0  0  0  0  0
   12.3820    7.6170   43.0250 C   0  0  0  0  0  0  0  0  0  0  0  0
   12.7280    7.2810   41.7360 C   0  0  0  0  0  0  0  0  0  0  0  0
   13.2070    8.1600   40.8330 N   0  0  0  0  0  0  0  0  0  0  0  0
   13.3370    9.4370   41.2270 C   0  0  0  0  0  0  0  0  0  0  0  0
   13.8390   10.3090   40.2590 N   0  0  0  0  0  0  0  0  0  0  0  0
   14.7040   11.3380   40.3550 C   0  0  0  0  0  0  0  0  0  0  0  0
   14.7050   12.5790   39.6880 C   0  0  0  0  0  0  0  0  0  0  0  0
   15.7360   13.3490   40.0480 N   0  0  0  0  0  0  0  0  0  0  0  0
   16.3910   12.5970   40.9510 N   0  0  0  0  0  0  0  0  0  0  0  0
   17.5850   13.1240   41.5700 C   0  0  0  0  0  0  0  0  0  0  0  0
   15.8160   11.3680   41.1710 C   0  0  0  0  0  0  0  0  0  0  0  0
   16.3780   10.3780   42.1220 C   0  0  0  0  0  0  0  0  0  0  0  0
   13.0130    9.8640   42.4570 N   0  0  0  0  0  0  0  0  0  0  0  0
   12.5380    8.9500   43.3260 C   0  0  0  0  0  0  0  0  0  0  0  0
   10.4899    4.6688   46.2118 H   0  0  0  0  0  0  0  0  0  0  0  0
    9.6645    4.3135   44.6564 H   0  0  0  0  0  0  0  0  0  0  0  0
   11.3365    4.9700   44.6564 H   0  0  0  0  0  0  0  0  0  0  0  0
   12.6294    6.3220   44.7011 H   0  0  0  0  0  0  0  0  0  0  0  0
   11.4738    5.7333   43.4745 H   0  0  0  0  0  0  0  0  0  0  0  0
   12.6065    6.2332   41.4241 H   0  0  0  0  0  0  0  0  0  0  0  0
   13.4270   10.0440   39.3750 H   0  0  0  0  0  0  0  0  0  0  0  0
   13.9431   12.8800   38.9539 H   0  0  0  0  0  0  0  0  0  0  0  0
   17.4815   13.0783   42.6642 H   0  0  0  0  0  0  0  0  0  0  0  0
   18.4540   12.5258   41.2586 H   0  0  0  0  0  0  0  0  0  0  0  0
   17.7287   14.1692   41.2586 H   0  0  0  0  0  0  0  0  0  0  0  0
   16.1887   10.7115   43.1530 H   0  0  0  0  0  0  0  0  0  0  0  0
   15.9000    9.4008   41.9591 H   0  0  0  0  0  0  0  0  0  0  0  0
   17.4621   10.2876   41.9591 H   0  0  0  0  0  0  0  0  0  0  0  0
   12.2589    9.2897   44.3343 H   0  0  0  0  0  0  0  0  0  0  0  0
  1  2  1  0
  2  3  2  0
  2  4  1  0
  4  5  1  0
  5  6  1  0
  6  7  2  0
  7  8  1  0
  8  9  2  0
  9 10  1  0
 10 11  1  0
 11 12  1  0
 12 13  2  0
 13 14  1  0
 14 15  1  0
 14 16  1  0
 16 17  1  0
  9 18  1  0
 18 19  2  0
 19  6  1  0
 16 11  2  0
  1 20  1  0
  1 21  1  0
  1 22  1  0
  5 23  1  0
  5 24  1  0
  7 25  1  0
 10 26  1  0
 12 27  1  0
 15 28  1  0
 15 29  1  0
 15 30  1  0
 17 31  1  0
 17 32  1  0
 17 33  1  0
 19 34  1  0
M  END
>  <meeko>  (106) 
{"is_sidechain": false}

>  <vina_energy>  (106) 
-6.64

$$$$

     RDKit          3D

 37 38  0  0  0  0  0  0  0  0999 V2000
   12.1820    6.4540   43.6970 C   0  0  0  0  0  0  0  0  0  0  0  0
   11.4290    7.7420   43.8160 C   0  0  0  0  0  0  0  0  0  0  0  0
   10.2460    7.8310   44.1140 O   0  0  0  0  0  0  0  0  0  0  0  0
   12.2550    8.7930   43.5550 O   0  0  0  0  0  0  0  0  0  0  0  0
   13.4160    8.4790   42.7660 C   0  0  0  0  0  0  0  0  0  0  0  0
   13.4900    9.3850   41.5360 C   0  0  0  0  0  0  0  0  0  0  0  0
   14.7110   10.2460   41.5460 C   0  0  0  0  0  0  0  0  0  0  0  0
   15.8280    9.9510   42.2920 C   0  0  0  0  0  0  0  0  0  0  0  0
   16.9480   10.7000   42.2960 N   0  0  0  0  0  0  0  0  0  0  0  0
   16.9580   11.7960   41.5190 C   0  0  0  0  0  0  0  0  0  0  0  0
   18.1390   12.5400   41.5560 N   0  0  0  0  0  0  0  0  0  0  0  0
   18.3470   13.8700   41.5900 C   0  0  0  0  0  0  0  0  0  0  0  0
   18.5260   14.7270   42.6950 C   0  0  0  0  0  0  0  0  0  0  0  0
   18.7100   15.9990   42.3270 N   0  0  0  0  0  0  0  0  0  0  0  0
   18.6520   15.9500   40.9830 N   0  0  0  0  0  0  0  0  0  0  0  0
   18.8150   17.1720   40.2310 C   0  0  0  0  0  0  0  0  0  0  0  0
   18.4280   14.6900   40.4820 C   0  0  0  0  0  0  0  0  0  0  0  0
   18.3200   14.4120   39.0300 C   0  0  0  0  0  0  0  0  0  0  0  0
   15.9200   12.1630   40.7510 N   0  0  0  0  0  0  0  0  0  0  0  0
   14.8220   11.3840   40.7790 C   0  0  0  0  0  0  0  0  0  0  0  0
   12.4081    6.0673   44.7017 H   0  0  0  0  0  0  0  0  0  0  0  0
   11.5703    5.7208   43.1509 H   0  0  0  0  0  0  0  0  0  0  0  0
   13.1210    6.6274   43.1509 H   0  0  0  0  0  0  0  0  0  0  0  0
   14.3189    8.6243   43.3772 H   0  0  0  0  0  0  0  0  0  0  0  0
   13.3471    7.4328   42.4331 H   0  0  0  0  0  0  0  0  0  0  0  0
   13.5060    8.7569   40.6331 H   0  0  0  0  0  0  0  0  0  0  0  0
   12.6098   10.0446   41.5472 H   0  0  0  0  0  0  0  0  0  0  0  0
   15.8058    9.0501   42.9228 H   0  0  0  0  0  0  0  0  0  0  0  0
   18.9060   11.8830   41.5600 H   0  0  0  0  0  0  0  0  0  0  0  0
   18.5155   14.3876   43.7413 H   0  0  0  0  0  0  0  0  0  0  0  0
   18.9278   18.0176   40.9254 H   0  0  0  0  0  0  0  0  0  0  0  0
   19.7109   17.0959   39.5974 H   0  0  0  0  0  0  0  0  0  0  0  0
   17.9304   17.3334   39.5974 H   0  0  0  0  0  0  0  0  0  0  0  0
   17.9254   13.3963   38.8795 H   0  0  0  0  0  0  0  0  0  0  0  0
   17.6400   15.1419   38.5665 H   0  0  0  0  0  0  0  0  0  0  0  0
   19.3144   14.4915   38.5665 H   0  0  0  0  0  0  0  0  0  0  0  0
   13.9648   11.6734   40.1534 H   0  0  0  0  0  0  0  0  0  0  0  0
  1  2  1  0
  2  3  2  0
  2  4  1  0
  4  5  1  0
  5  6  1  0
  6  7  1  0
  7  8  2  0
  8  9  1  0
  9 10  2  0
 10 11  1  0
 11 12  1  0
 12 13  1  0
 13 14  2  0
 14 15  1  0
 15 16  1  0
 15 17  1  0
 17 18  1  0
 10 19  1  0
 19 20  2  0
 20  7  1  0
 17 12  2  0
  1 21  1  0
  1 22  1  0
  1 23  1  0
  5 24  1  0
  5 25  1  0
  6 26  1  0
  6 27  1  0
  8 28  1  0
 11 29  1  0
 13 30  1  0
 16 31  1  0
 16 32  1  0
 16 33  1  0
 18 34  1  0
 18 35  1  0
 18 36  1  0
 20 37  1  0
M  END
>  <meeko>  (107) 
{"is_sidechain": false}

>  <vina_energy>  (107) 
-6.41

$$$$

     RDKit          3D

 35 36  0  0  0  0  0  0  0  0999 V2000
   10.5540    4.5840   45.1290 C   0  0  0  0  0  0  0  0  0  0  0  0
    9.6770    5.8230   45.1200 C   0  0  0  0  0  0  0  0  0  0  0  0
   10.6290    7.3530   44.8290 S   0  0  0  0  0  0  0  0  0  0  0  0
   11.9200    6.7580   43.6920 C   0  0  0  0  0  0  0  0  0  0  0  0
   12.4540    7.8040   42.7720 C   0  0  0  0  0  0  0  0  0  0  0  0
   12.8850    7.5210   41.4960 C   0  0  0  0  0  0  0  0  0  0  0  0
   13.3660    8.4440   40.6390 N   0  0  0  0  0  0  0  0  0  0  0  0
   13.4140    9.7170   41.0690 C   0  0  0  0  0  0  0  0  0  0  0  0
   13.9190   10.6360   40.1500 N   0  0  0  0  0  0  0  0  0  0  0  0
   14.8460   11.6050   40.2840 C   0  0  0  0  0  0  0  0  0  0  0  0
   14.9220   12.8710   39.6710 C   0  0  0  0  0  0  0  0  0  0  0  0
   16.0010   13.5600   40.0570 N   0  0  0  0  0  0  0  0  0  0  0  0
   16.6170   12.7250   40.9130 N   0  0  0  0  0  0  0  0  0  0  0  0
   17.8480   13.1500   41.5400 C   0  0  0  0  0  0  0  0  0  0  0  0
   15.9590   11.5330   41.0970 C   0  0  0  0  0  0  0  0  0  0  0  0
   16.4550   10.4720   42.0090 C   0  0  0  0  0  0  0  0  0  0  0  0
   13.0080   10.0940   42.2910 N   0  0  0  0  0  0  0  0  0  0  0  0
   12.5390    9.1350   43.1150 C   0  0  0  0  0  0  0  0  0  0  0  0
   10.7623    4.2897   46.1682 H   0  0  0  0  0  0  0  0  0  0  0  0
   10.0345    3.7633   44.6126 H   0  0  0  0  0  0  0  0  0  0  0  0
   11.5007    4.8011   44.6126 H   0  0  0  0  0  0  0  0  0  0  0  0
    8.9264    5.7178   44.3228 H   0  0  0  0  0  0  0  0  0  0  0  0
    9.2066    5.9061   46.1109 H   0  0  0  0  0  0  0  0  0  0  0  0
   12.7551    6.3676   44.2922 H   0  0  0  0  0  0  0  0  0  0  0  0
   11.4537    5.9885   43.0591 H   0  0  0  0  0  0  0  0  0  0  0  0
   12.8339    6.4768   41.1540 H   0  0  0  0  0  0  0  0  0  0  0  0
   13.4490   10.4720   39.2700 H   0  0  0  0  0  0  0  0  0  0  0  0
   14.1776   13.2501   38.9554 H   0  0  0  0  0  0  0  0  0  0  0  0
   17.7350   13.1110   42.6335 H   0  0  0  0  0  0  0  0  0  0  0  0
   18.6660   12.4823   41.2318 H   0  0  0  0  0  0  0  0  0  0  0  0
   18.0798   14.1802   41.2318 H   0  0  0  0  0  0  0  0  0  0  0  0
   16.3077   10.7871   43.0525 H   0  0  0  0  0  0  0  0  0  0  0  0
   15.8988    9.5410   41.8251 H   0  0  0  0  0  0  0  0  0  0  0  0
   17.5261   10.3017   41.8251 H   0  0  0  0  0  0  0  0  0  0  0  0
   12.2049    9.4333   44.1197 H   0  0  0  0  0  0  0  0  0  0  0  0
  1  2  1  0
  2  3  1  0
  3  4  1  0
  4  5  1  0
  5  6  2  0
  6  7  1  0
  7  8  2  0
  8  9  1  0
  9 10  1  0
 10 11  1  0
 11 12  2  0
 12 13  1  0
 13 14  1  0
 13 15  1  0
 15 16  1  0
  8 17  1  0
 17 18  2  0
 18  5  1  0
 15 10  2  0
  1 19  1  0
  1 20  1  0
  1 21  1  0
  2 22  1  0
  2 23  1  0
  4 24  1  0
  4 25  1  0
  6 26  1  0
  9 27  1  0
 11 28  1  0
 14 29  1  0
 14 30  1  0
 14 31  1  0
 16 32  1  0
 16 33  1  0
 16 34  1  0
 18 35  1  0
M  END
>  <meeko>  (108) 
{"is_sidechain": false}

>  <vina_energy>  (108) 
-5.81

$$$$

     RDKit          3D

 35 37  0  0  0  0  0  0  0  0999 V2000
   18.9310   14.5790   39.3990 C   0  0  0  0  0  0  0  0  0  0  0  0
   18.6840   14.8290   40.8400 C   0  0  0  0  0  0  0  0  0  0  0  0
   18.3280   13.9890   41.8750 C   0  0  0  0  0  0  0  0  0  0  0  0
   18.1220   12.6630   41.7640 N   0  0  0  0  0  0  0  0  0  0  0  0
   16.9510   11.9280   41.5750 C   0  0  0  0  0  0  0  0  0  0  0  0
   16.7350   10.7700   42.2180 N   0  0  0  0  0  0  0  0  0  0  0  0
   15.5780   10.1290   41.9730 C   0  0  0  0  0  0  0  0  0  0  0  0
   14.6140   10.5920   41.1080 C   0  0  0  0  0  0  0  0  0  0  0  0
   13.3360    9.8630   40.8590 C   0  0  0  0  0  0  0  0  0  0  0  0
   12.9840    9.0030   41.9810 N   0  0  0  0  0  0  0  0  0  0  0  0
   12.9880    7.6370   41.9990 C   0  0  0  0  0  0  0  0  0  0  0  0
   12.5950    7.2790   43.2640 C   0  0  0  0  0  0  0  0  0  0  0  0
   12.4010    5.7250   43.8980 Cl  0  0  0  0  0  0  0  0  0  0  0  0
   12.3820    8.4930   43.9380 C   0  0  0  0  0  0  0  0  0  0  0  0
   12.6250    9.5540   43.1610 N   0  0  0  0  0  0  0  0  0  0  0  0
   14.9260   11.7850   40.4950 C   0  0  0  0  0  0  0  0  0  0  0  0
   16.0720   12.4620   40.7130 N   0  0  0  0  0  0  0  0  0  0  0  0
   18.2390   14.8230   43.0090 C   0  0  0  0  0  0  0  0  0  0  0  0
   18.5190   16.0980   42.7250 N   0  0  0  0  0  0  0  0  0  0  0  0
   18.7900   16.0770   41.4070 N   0  0  0  0  0  0  0  0  0  0  0  0
   19.1440   17.3100   40.7420 C   0  0  0  0  0  0  0  0  0  0  0  0
   19.7002   13.8005   39.2885 H   0  0  0  0  0  0  0  0  0  0  0  0
   17.9991   14.2443   38.9199 H   0  0  0  0  0  0  0  0  0  0  0  0
   19.2769   15.5068   38.9199 H   0  0  0  0  0  0  0  0  0  0  0  0
   18.8850   12.0020   41.8200 H   0  0  0  0  0  0  0  0  0  0  0  0
   15.3919    9.1788   42.4951 H   0  0  0  0  0  0  0  0  0  0  0  0
   12.5307   10.5962   40.7043 H   0  0  0  0  0  0  0  0  0  0  0  0
   13.4672    9.2313   39.9681 H   0  0  0  0  0  0  0  0  0  0  0  0
   13.2518    6.9632   41.1705 H   0  0  0  0  0  0  0  0  0  0  0  0
   12.0529    8.5629   44.9853 H   0  0  0  0  0  0  0  0  0  0  0  0
   14.1991   12.2101   39.7872 H   0  0  0  0  0  0  0  0  0  0  0  0
   17.9696   14.4643   44.0134 H   0  0  0  0  0  0  0  0  0  0  0  0
   19.3655   18.0816   41.4940 H   0  0  0  0  0  0  0  0  0  0  0  0
   20.0312   17.1457   40.1129 H   0  0  0  0  0  0  0  0  0  0  0  0
   18.3047   17.6414   40.1129 H   0  0  0  0  0  0  0  0  0  0  0  0
  1  2  1  0
  2  3  2  0
  3  4  1  0
  4  5  1  0
  5  6  2  0
  6  7  1  0
  7  8  2  0
  8  9  1  0
  9 10  1  0
 10 11  1  0
 11 12  2  0
 12 13  1  0
 12 14  1  0
 14 15  2  0
  8 16  1  0
 16 17  2  0
  3 18  1  0
 18 19  2  0
 19 20  1  0
 20 21  1  0
 20  2  1  0
 17  5  1  0
 15 10  1  0
  1 22  1  0
  1 23  1  0
  1 24  1  0
  4 25  1  0
  7 26  1  0
  9 27  1  0
  9 28  1  0
 11 29  1  0
 14 30  1  0
 16 31  1  0
 18 32  1  0
 21 33  1  0
 21 34  1  0
 21 35  1  0
M  END
>  <meeko>  (109) 
{"is_sidechain": false}

>  <vina_energy>  (109) 
-6.42

$$$$

     RDKit          3D

 34 35  0  0  0  0  0  0  0  0999 V2000
    8.6670    7.6230   46.6150 C   0  0  0  0  0  0  0  0  0  0  0  0
    8.7400    6.6880   45.4620 N   0  0  0  0  0  0  0  0  0  0  0  0
   10.0170    5.9140   45.3750 C   0  0  0  0  0  0  0  0  0  0  0  0
   11.0520    6.6300   44.5830 C   0  0  0  0  0  0  0  0  0  0  0  0
   11.1640    8.0020   44.5770 C   0  0  0  0  0  0  0  0  0  0  0  0
   12.1280    8.6650   43.9170 N   0  0  0  0  0  0  0  0  0  0  0  0
   13.0170    7.9510   43.2070 C   0  0  0  0  0  0  0  0  0  0  0  0
   14.0440    8.5630   42.4930 N   0  0  0  0  0  0  0  0  0  0  0  0
   14.0190    9.5830   41.6110 C   0  0  0  0  0  0  0  0  0  0  0  0
   13.0230    9.9500   40.6840 C   0  0  0  0  0  0  0  0  0  0  0  0
   13.3580   11.0310   39.9780 N   0  0  0  0  0  0  0  0  0  0  0  0
   14.5800   11.3500   40.4450 N   0  0  0  0  0  0  0  0  0  0  0  0
   15.2690   12.4930   39.8890 C   0  0  0  0  0  0  0  0  0  0  0  0
   15.0250   10.5120   41.4420 C   0  0  0  0  0  0  0  0  0  0  0  0
   16.3400   10.6910   42.1050 C   0  0  0  0  0  0  0  0  0  0  0  0
   12.9780    6.6100   43.1500 N   0  0  0  0  0  0  0  0  0  0  0  0
   12.0010    5.9790   43.8270 C   0  0  0  0  0  0  0  0  0  0  0  0
    8.7116    7.0516   47.5539 H   0  0  0  0  0  0  0  0  0  0  0  0
    9.5131    8.3246   46.5722 H   0  0  0  0  0  0  0  0  0  0  0  0
    7.7223    8.1848   46.5722 H   0  0  0  0  0  0  0  0  0  0  0  0
    8.6000    7.2160   44.5910 H   0  0  0  0  0  0  0  0  0  0  0  0
    7.9460    6.0340   45.5120 H   0  0  0  0  0  0  0  0  0  0  0  0
   10.4009    5.7476   46.3923 H   0  0  0  0  0  0  0  0  0  0  0  0
    9.8020    4.9613   44.8689 H   0  0  0  0  0  0  0  0  0  0  0  0
   10.4242    8.5870   45.1432 H   0  0  0  0  0  0  0  0  0  0  0  0
   14.9120    8.0990   42.7250 H   0  0  0  0  0  0  0  0  0  0  0  0
   12.0755    9.4059   40.5569 H   0  0  0  0  0  0  0  0  0  0  0  0
   15.6496   13.1244   40.7053 H   0  0  0  0  0  0  0  0  0  0  0  0
   16.1100   12.1484   39.2693 H   0  0  0  0  0  0  0  0  0  0  0  0
   14.5716   13.0758   39.2693 H   0  0  0  0  0  0  0  0  0  0  0  0
   16.2058   10.6727   43.1966 H   0  0  0  0  0  0  0  0  0  0  0  0
   17.0158    9.8766   41.8050 H   0  0  0  0  0  0  0  0  0  0  0  0
   16.7735   11.6564   41.8050 H   0  0  0  0  0  0  0  0  0  0  0  0
   11.9581    4.8811   43.7734 H   0  0  0  0  0  0  0  0  0  0  0  0
  1  2  1  0
  2  3  1  0
  3  4  1  0
  4  5  2  0
  5  6  1  0
  6  7  2  0
  7  8  1  0
  8  9  1  0
  9 10  1  0
 10 11  2  0
 11 12  1  0
 12 13  1  0
 12 14  1  0
 14 15  1  0
  7 16  1  0
 16 17  2  0
 17  4  1  0
 14  9  2  0
  1 18  1  0
  1 19  1  0
  1 20  1  0
  2 21  1  0
  2 22  1  0
  3 23  1  0
  3 24  1  0
  5 25  1  0
  8 26  1  0
 10 27  1  0
 13 28  1  0
 13 29  1  0
 13 30  1  0
 15 31  1  0
 15 32  1  0
 15 33  1  0
 17 34  1  0
M  CHG  1   2   1
M  END
>  <meeko>  (110) 
{"is_sidechain": false}

>  <vina_energy>  (110) 
-7.69

$$$$

     RDKit          3D

 37 38  0  0  0  0  0  0  0  0999 V2000
   15.0830   13.3030   39.5360 C   0  0  0  0  0  0  0  0  0  0  0  0
   15.8230   12.4280   40.4780 C   0  0  0  0  0  0  0  0  0  0  0  0
   15.5070   11.2160   41.0600 C   0  0  0  0  0  0  0  0  0  0  0  0
   14.3590   10.5360   40.8650 N   0  0  0  0  0  0  0  0  0  0  0  0
   13.8130    9.4540   41.5520 C   0  0  0  0  0  0  0  0  0  0  0  0
   13.9300    9.3320   42.8840 N   0  0  0  0  0  0  0  0  0  0  0  0
   13.3760    8.2600   43.4710 C   0  0  0  0  0  0  0  0  0  0  0  0
   12.7150    7.2680   42.7820 C   0  0  0  0  0  0  0  0  0  0  0  0
   12.1510    6.0620   43.4500 C   0  0  0  0  0  0  0  0  0  0  0  0
   11.1210    6.3660   44.5210 N   0  0  0  0  0  0  0  0  0  0  0  0
   10.6270    5.1390   45.2430 C   0  0  0  0  0  0  0  0  0  0  0  0
    9.9740    7.1710   43.9700 C   0  0  0  0  0  0  0  0  0  0  0  0
   12.6320    7.4810   41.4240 C   0  0  0  0  0  0  0  0  0  0  0  0
   13.1720    8.5450   40.8000 N   0  0  0  0  0  0  0  0  0  0  0  0
   16.6210   10.8930   41.8590 C   0  0  0  0  0  0  0  0  0  0  0  0
   17.5810   11.8190   41.7930 N   0  0  0  0  0  0  0  0  0  0  0  0
   17.0710   12.7460   40.9600 N   0  0  0  0  0  0  0  0  0  0  0  0
   17.8510   13.9240   40.6580 C   0  0  0  0  0  0  0  0  0  0  0  0
   14.4748   14.0221   40.1043 H   0  0  0  0  0  0  0  0  0  0  0  0
   15.7985   13.8478   38.9026 H   0  0  0  0  0  0  0  0  0  0  0  0
   14.4269   12.6879   38.9026 H   0  0  0  0  0  0  0  0  0  0  0  0
   13.7220   10.7950   40.1230 H   0  0  0  0  0  0  0  0  0  0  0  0
   13.4544    8.1686   44.5644 H   0  0  0  0  0  0  0  0  0  0  0  0
   11.6749    5.4341   42.6825 H   0  0  0  0  0  0  0  0  0  0  0  0
   12.9900    5.5594   43.9535 H   0  0  0  0  0  0  0  0  0  0  0  0
   11.5750    6.9570   45.2310 H   0  0  0  0  0  0  0  0  0  0  0  0
   10.6924    5.3014   46.3290 H   0  0  0  0  0  0  0  0  0  0  0  0
    9.5809    4.9454   44.9635 H   0  0  0  0  0  0  0  0  0  0  0  0
   11.2472    4.2745   44.9635 H   0  0  0  0  0  0  0  0  0  0  0  0
    9.3841    7.5850   44.8010 H   0  0  0  0  0  0  0  0  0  0  0  0
   10.3660    7.9932   43.3532 H   0  0  0  0  0  0  0  0  0  0  0  0
    9.3341    6.5229   43.3532 H   0  0  0  0  0  0  0  0  0  0  0  0
   12.0941    6.7399   40.8145 H   0  0  0  0  0  0  0  0  0  0  0  0
   16.6923    9.9804   42.4690 H   0  0  0  0  0  0  0  0  0  0  0  0
   18.1686   14.4037   41.5955 H   0  0  0  0  0  0  0  0  0  0  0  0
   18.7380   13.6367   40.0743 H   0  0  0  0  0  0  0  0  0  0  0  0
   17.2403   14.6284   40.0743 H   0  0  0  0  0  0  0  0  0  0  0  0
  1  2  1  0
  2  3  2  0
  3  4  1  0
  4  5  1  0
  5  6  2  0
  6  7  1  0
  7  8  2  0
  8  9  1  0
  9 10  1  0
 10 11  1  0
 10 12  1  0
  8 13  1  0
 13 14  2  0
  3 15  1  0
 15 16  2  0
 16 17  1  0
 17 18  1  0
 17  2  1  0
 14  5  1  0
  1 19  1  0
  1 20  1  0
  1 21  1  0
  4 22  1  0
  7 23  1  0
  9 24  1  0
  9 25  1  0
 10 26  1  0
 11 27  1  0
 11 28  1  0
 11 29  1  0
 12 30  1  0
 12 31  1  0
 12 32  1  0
 13 33  1  0
 15 34  1  0
 18 35  1  0
 18 36  1  0
 18 37  1  0
M  CHG  1  10   1
M  END
>  <meeko>  (111) 
{"is_sidechain": false}

>  <vina_energy>  (111) 
-5.93

$$$$

     RDKit          3D

 37 38  0  0  0  0  0  0  0  0999 V2000
    8.4530    8.2160   46.7270 C   0  0  0  0  0  0  0  0  0  0  0  0
    8.4670    6.7590   46.4160 N   0  0  0  0  0  0  0  0  0  0  0  0
    8.9960    6.3800   45.0670 C   0  0  0  0  0  0  0  0  0  0  0  0
   10.4000    5.7740   45.1600 C   0  0  0  0  0  0  0  0  0  0  0  0
   11.3990    6.6190   44.4330 C   0  0  0  0  0  0  0  0  0  0  0  0
   12.4680    6.0910   43.7450 C   0  0  0  0  0  0  0  0  0  0  0  0
   13.4060    6.8370   43.1340 N   0  0  0  0  0  0  0  0  0  0  0  0
   13.2770    8.1730   43.1940 C   0  0  0  0  0  0  0  0  0  0  0  0
   14.2710    8.9070   42.5490 N   0  0  0  0  0  0  0  0  0  0  0  0
   14.1910    9.8480   41.5860 C   0  0  0  0  0  0  0  0  0  0  0  0
   13.1910   10.0620   40.6170 C   0  0  0  0  0  0  0  0  0  0  0  0
   13.4590   11.1060   39.8300 N   0  0  0  0  0  0  0  0  0  0  0  0
   14.6420   11.5540   40.2900 N   0  0  0  0  0  0  0  0  0  0  0  0
   15.2570   12.6980   39.6550 C   0  0  0  0  0  0  0  0  0  0  0  0
   15.1260   10.8360   41.3600 C   0  0  0  0  0  0  0  0  0  0  0  0
   16.4090   11.1660   42.0290 C   0  0  0  0  0  0  0  0  0  0  0  0
   12.2650    8.7740   43.8400 N   0  0  0  0  0  0  0  0  0  0  0  0
   11.3480    7.9950   44.4340 C   0  0  0  0  0  0  0  0  0  0  0  0
    8.4516    8.3581   47.8178 H   0  0  0  0  0  0  0  0  0  0  0  0
    9.3466    8.6914   46.2964 H   0  0  0  0  0  0  0  0  0  0  0  0
    7.5504    8.6742   46.2964 H   0  0  0  0  0  0  0  0  0  0  0  0
    9.0540    6.2970   47.1260 H   0  0  0  0  0  0  0  0  0  0  0  0
    7.5240    6.3680   46.5550 H   0  0  0  0  0  0  0  0  0  0  0  0
    8.3184    5.6422   44.6126 H   0  0  0  0  0  0  0  0  0  0  0  0
    9.0551    7.2908   44.4530 H   0  0  0  0  0  0  0  0  0  0  0  0
   10.6916    5.7028   46.2183 H   0  0  0  0  0  0  0  0  0  0  0  0
   10.3822    4.7764   44.6969 H   0  0  0  0  0  0  0  0  0  0  0  0
   12.5606    4.9962   43.6918 H   0  0  0  0  0  0  0  0  0  0  0  0
   15.1660    8.6120   42.9170 H   0  0  0  0  0  0  0  0  0  0  0  0
   12.2901    9.4384   40.5199 H   0  0  0  0  0  0  0  0  0  0  0  0
   15.6287   13.3893   40.4257 H   0  0  0  0  0  0  0  0  0  0  0  0
   16.0962   12.3623   39.0281 H   0  0  0  0  0  0  0  0  0  0  0  0
   14.5141   13.2128   39.0281 H   0  0  0  0  0  0  0  0  0  0  0  0
   16.2732   11.1311   43.1200 H   0  0  0  0  0  0  0  0  0  0  0  0
   17.1761   10.4359   41.7314 H   0  0  0  0  0  0  0  0  0  0  0  0
   16.7286   12.1756   41.7314 H   0  0  0  0  0  0  0  0  0  0  0  0
   10.5084    8.4830   44.9507 H   0  0  0  0  0  0  0  0  0  0  0  0
  1  2  1  0
  2  3  1  0
  3  4  1  0
  4  5  1  0
  5  6  2  0
  6  7  1  0
  7  8  2  0
  8  9  1  0
  9 10  1  0
 10 11  1  0
 11 12  2  0
 12 13  1  0
 13 14  1  0
 13 15  1  0
 15 16  1  0
  8 17  1  0
 17 18  2  0
 18  5  1  0
 15 10  2  0
  1 19  1  0
  1 20  1  0
  1 21  1  0
  2 22  1  0
  2 23  1  0
  3 24  1  0
  3 25  1  0
  4 26  1  0
  4 27  1  0
  6 28  1  0
  9 29  1  0
 11 30  1  0
 14 31  1  0
 14 32  1  0
 14 33  1  0
 16 34  1  0
 16 35  1  0
 16 36  1  0
 18 37  1  0
M  CHG  1   2   1
M  END
>  <meeko>  (112) 
{"is_sidechain": false}

>  <vina_energy>  (112) 
-7.27

$$$$

     RDKit          3D

 41 43  0  0  0  0  0  0  0  0999 V2000
   15.2930   13.4510   39.3600 C   0  0  0  0  0  0  0  0  0  0  0  0
   16.0060   12.5700   40.3170 C   0  0  0  0  0  0  0  0  0  0  0  0
   15.6910   11.3380   40.8550 C   0  0  0  0  0  0  0  0  0  0  0  0
   14.5750   10.6340   40.5860 N   0  0  0  0  0  0  0  0  0  0  0  0
   13.9840    9.5670   41.2600 C   0  0  0  0  0  0  0  0  0  0  0  0
   14.2710    9.4670   42.5680 N   0  0  0  0  0  0  0  0  0  0  0  0
   13.7160    8.4520   43.2570 C   0  0  0  0  0  0  0  0  0  0  0  0
   12.8650    7.5250   42.6990 C   0  0  0  0  0  0  0  0  0  0  0  0
   12.2140    6.4410   43.4880 C   0  0  0  0  0  0  0  0  0  0  0  0
   10.9370    6.8670   44.2020 N   0  0  2  0  0  0  0  0  0  0  0  0
   11.0250    8.2910   44.6750 C   0  0  0  0  0  0  0  0  0  0  0  0
   10.4690    5.8500   45.2060 C   0  0  0  0  0  0  0  0  0  0  0  0
    9.2300    5.0570   44.8940 C   0  0  0  0  0  0  0  0  0  0  0  0
   10.5680    4.3760   44.9360 C   0  0  0  0  0  0  0  0  0  0  0  0
   12.6400    7.6980   41.3530 C   0  0  0  0  0  0  0  0  0  0  0  0
   13.1710    8.7010   40.6340 N   0  0  0  0  0  0  0  0  0  0  0  0
   16.7710   11.0250   41.7050 C   0  0  0  0  0  0  0  0  0  0  0  0
   17.7090   11.9750   41.7090 N   0  0  0  0  0  0  0  0  0  0  0  0
   17.2250   12.9030   40.8630 N   0  0  0  0  0  0  0  0  0  0  0  0
   17.9890   14.1060   40.6230 C   0  0  0  0  0  0  0  0  0  0  0  0
   14.6958   14.1889   39.9158 H   0  0  0  0  0  0  0  0  0  0  0  0
   16.0254   13.9737   38.7272 H   0  0  0  0  0  0  0  0  0  0  0  0
   14.6291   12.8437   38.7272 H   0  0  0  0  0  0  0  0  0  0  0  0
   14.0010   10.8570   39.7830 H   0  0  0  0  0  0  0  0  0  0  0  0
   13.9562    8.3582   44.3263 H   0  0  0  0  0  0  0  0  0  0  0  0
   11.9672    5.6166   42.8029 H   0  0  0  0  0  0  0  0  0  0  0  0
   12.9295    6.1466   44.2699 H   0  0  0  0  0  0  0  0  0  0  0  0
   10.1990    6.8780   43.4830 H   0  0  0  0  0  0  0  0  0  0  0  0
   11.0263    8.3126   45.7748 H   0  0  0  0  0  0  0  0  0  0  0  0
   11.9530    8.7458   44.2982 H   0  0  0  0  0  0  0  0  0  0  0  0
   10.1601    8.8566   44.2982 H   0  0  0  0  0  0  0  0  0  0  0  0
   10.8160    6.4967   46.0254 H   0  0  0  0  0  0  0  0  0  0  0  0
    8.4885    4.8620   45.6828 H   0  0  0  0  0  0  0  0  0  0  0  0
    8.4207    5.1373   44.1533 H   0  0  0  0  0  0  0  0  0  0  0  0
   10.8061    3.6818   45.7554 H   0  0  0  0  0  0  0  0  0  0  0  0
   11.1441    3.7505   44.2382 H   0  0  0  0  0  0  0  0  0  0  0  0
   11.9900    6.9758   40.8373 H   0  0  0  0  0  0  0  0  0  0  0  0
   16.8339   10.1011   42.2987 H   0  0  0  0  0  0  0  0  0  0  0  0
   18.2752   14.5566   41.5848 H   0  0  0  0  0  0  0  0  0  0  0  0
   18.8948   13.8570   40.0508 H   0  0  0  0  0  0  0  0  0  0  0  0
   17.3785   14.8200   40.0508 H   0  0  0  0  0  0  0  0  0  0  0  0
  1  2  1  0
  2  3  2  0
  3  4  1  0
  4  5  1  0
  5  6  2  0
  6  7  1  0
  7  8  2  0
  8  9  1  0
  9 10  1  0
 10 11  1  0
 10 12  1  0
 12 13  1  0
 13 14  1  0
  8 15  1  0
 15 16  2  0
  3 17  1  0
 17 18  2  0
 18 19  1  0
 19 20  1  0
 19  2  1  0
 16  5  1  0
 14 12  1  0
  1 21  1  0
  1 22  1  0
  1 23  1  0
  4 24  1  0
  7 25  1  0
  9 26  1  0
  9 27  1  0
 10 28  1  6
 11 29  1  0
 11 30  1  0
 11 31  1  0
 12 32  1  0
 13 33  1  0
 13 34  1  0
 14 35  1  0
 14 36  1  0
 15 37  1  0
 17 38  1  0
 20 39  1  0
 20 40  1  0
 20 41  1  0
M  CHG  1  10   1
M  END
>  <meeko>  (113) 
{"is_sidechain": false}

>  <vina_energy>  (113) 
-6.18

$$$$

     RDKit          3D

 40 41  0  0  0  0  0  0  0  0999 V2000
   15.2670   13.4090   39.2980 C   0  0  0  0  0  0  0  0  0  0  0  0
   15.9980   12.5770   40.2860 C   0  0  0  0  0  0  0  0  0  0  0  0
   15.7250   11.3450   40.8440 C   0  0  0  0  0  0  0  0  0  0  0  0
   14.6380   10.5940   40.5740 N   0  0  0  0  0  0  0  0  0  0  0  0
   14.0160    9.5900   41.3130 C   0  0  0  0  0  0  0  0  0  0  0  0
   13.3480    8.6680   40.5980 N   0  0  0  0  0  0  0  0  0  0  0  0
   12.7320    7.6810   41.2720 C   0  0  0  0  0  0  0  0  0  0  0  0
   12.7390    7.5720   42.6460 C   0  0  0  0  0  0  0  0  0  0  0  0
   11.9930    6.5030   43.3820 C   0  0  0  0  0  0  0  0  0  0  0  0
   10.6940    7.0540   43.9820 C   0  0  0  0  0  0  0  0  0  0  0  0
   10.3820    6.4210   45.3270 N   0  0  0  0  0  0  0  0  0  0  0  0
    9.2150    7.1110   45.9920 C   0  0  0  0  0  0  0  0  0  0  0  0
   10.1500    4.9340   45.2580 C   0  0  0  0  0  0  0  0  0  0  0  0
   13.4520    8.5580   43.2910 C   0  0  0  0  0  0  0  0  0  0  0  0
   14.0770    9.5610   42.6530 N   0  0  0  0  0  0  0  0  0  0  0  0
   16.8010   11.0910   41.7170 C   0  0  0  0  0  0  0  0  0  0  0  0
   17.6960   12.0820   41.7230 N   0  0  0  0  0  0  0  0  0  0  0  0
   17.1960   12.9660   40.8410 N   0  0  0  0  0  0  0  0  0  0  0  0
   17.9240   14.1870   40.5800 C   0  0  0  0  0  0  0  0  0  0  0  0
   14.6307   14.1332   39.8278 H   0  0  0  0  0  0  0  0  0  0  0  0
   15.9890   13.9480   38.6670 H   0  0  0  0  0  0  0  0  0  0  0  0
   14.6395   12.7624   38.6670 H   0  0  0  0  0  0  0  0  0  0  0  0
   14.1330   10.7000   39.7040 H   0  0  0  0  0  0  0  0  0  0  0  0
   12.1916    6.9169   40.6939 H   0  0  0  0  0  0  0  0  0  0  0  0
   11.7498    5.6883   42.6841 H   0  0  0  0  0  0  0  0  0  0  0  0
   12.6277    6.1323   44.2004 H   0  0  0  0  0  0  0  0  0  0  0  0
   10.7961    8.1411   44.1150 H   0  0  0  0  0  0  0  0  0  0  0  0
    9.8706    6.8161   43.2925 H   0  0  0  0  0  0  0  0  0  0  0  0
   11.1900    6.5750   45.9460 H   0  0  0  0  0  0  0  0  0  0  0  0
    9.3248    7.0461   47.0846 H   0  0  0  0  0  0  0  0  0  0  0  0
    9.1922    8.1679   45.6879 H   0  0  0  0  0  0  0  0  0  0  0  0
    8.2779    6.6217   45.6879 H   0  0  0  0  0  0  0  0  0  0  0  0
   10.0862    4.5252   46.2772 H   0  0  0  0  0  0  0  0  0  0  0  0
    9.2098    4.7340   44.7232 H   0  0  0  0  0  0  0  0  0  0  0  0
   10.9846    4.4571   44.7232 H   0  0  0  0  0  0  0  0  0  0  0  0
   13.5129    8.5221   44.3887 H   0  0  0  0  0  0  0  0  0  0  0  0
   16.8935   10.1791   42.3252 H   0  0  0  0  0  0  0  0  0  0  0  0
   18.2046   14.6576   41.5338 H   0  0  0  0  0  0  0  0  0  0  0  0
   18.8322   13.9564   40.0038 H   0  0  0  0  0  0  0  0  0  0  0  0
   17.2893   14.8763   40.0038 H   0  0  0  0  0  0  0  0  0  0  0  0
  1  2  1  0
  2  3  2  0
  3  4  1  0
  4  5  1  0
  5  6  2  0
  6  7  1  0
  7  8  2  0
  8  9  1  0
  9 10  1  0
 10 11  1  0
 11 12  1  0
 11 13  1  0
  8 14  1  0
 14 15  2  0
  3 16  1  0
 16 17  2  0
 17 18  1  0
 18 19  1  0
 18  2  1  0
 15  5  1  0
  1 20  1  0
  1 21  1  0
  1 22  1  0
  4 23  1  0
  7 24  1  0
  9 25  1  0
  9 26  1  0
 10 27  1  0
 10 28  1  0
 11 29  1  0
 12 30  1  0
 12 31  1  0
 12 32  1  0
 13 33  1  0
 13 34  1  0
 13 35  1  0
 14 36  1  0
 16 37  1  0
 19 38  1  0
 19 39  1  0
 19 40  1  0
M  CHG  1  11   1
M  END
>  <meeko>  (114) 
{"is_sidechain": false}

>  <vina_energy>  (114) 
-6.07

$$$$

     RDKit          3D

 40 41  0  0  0  0  0  0  0  0999 V2000
    8.6460    8.0420   46.7130 C   0  0  0  0  0  0  0  0  0  0  0  0
    8.4940    6.7050   46.0670 N   0  0  0  0  0  0  0  0  0  0  0  0
    9.6080    6.2980   45.1250 C   0  0  2  0  0  0  0  0  0  0  0  0
    9.7610    4.7800   45.1470 C   0  0  0  0  0  0  0  0  0  0  0  0
   10.9320    6.9810   45.5450 C   0  0  0  0  0  0  0  0  0  0  0  0
   11.7520    7.4610   44.3860 C   0  0  0  0  0  0  0  0  0  0  0  0
   11.9790    8.7960   44.1400 C   0  0  0  0  0  0  0  0  0  0  0  0
   12.6300    9.2540   43.0550 N   0  0  0  0  0  0  0  0  0  0  0  0
   13.1180    8.3510   42.1900 C   0  0  0  0  0  0  0  0  0  0  0  0
   13.7750    8.8690   41.0780 N   0  0  0  0  0  0  0  0  0  0  0  0
   14.2400   10.1100   40.8260 C   0  0  0  0  0  0  0  0  0  0  0  0
   13.7350   11.1040   39.9650 C   0  0  0  0  0  0  0  0  0  0  0  0
   14.4650   12.2210   39.9920 N   0  0  0  0  0  0  0  0  0  0  0  0
   15.4570   11.9310   40.8550 N   0  0  0  0  0  0  0  0  0  0  0  0
   16.4720   12.9250   41.1210 C   0  0  0  0  0  0  0  0  0  0  0  0
   15.3620   10.6720   41.4030 C   0  0  0  0  0  0  0  0  0  0  0  0
   16.3410   10.1530   42.3910 C   0  0  0  0  0  0  0  0  0  0  0  0
   12.9630    7.0300   42.3650 N   0  0  0  0  0  0  0  0  0  0  0  0
   12.3180    6.6080   43.4640 C   0  0  0  0  0  0  0  0  0  0  0  0
    8.6326    7.9245   47.8066 H   0  0  0  0  0  0  0  0  0  0  0  0
    9.6011    8.4920   46.4042 H   0  0  0  0  0  0  0  0  0  0  0  0
    7.8163    8.6949   46.4042 H   0  0  0  0  0  0  0  0  0  0  0  0
    7.5840    6.6670   45.5870 H   0  0  0  0  0  0  0  0  0  0  0  0
    8.4290    6.0210   46.8360 H   0  0  0  0  0  0  0  0  0  0  0  0
    9.3600    6.6189   44.1025 H   0  0  0  0  0  0  0  0  0  0  0  0
    9.7963    4.4301   46.1893 H   0  0  0  0  0  0  0  0  0  0  0  0
    8.9049    4.3177   44.6338 H   0  0  0  0  0  0  0  0  0  0  0  0
   10.6921    4.4978   44.6338 H   0  0  0  0  0  0  0  0  0  0  0  0
   10.6912    7.8446   46.1823 H   0  0  0  0  0  0  0  0  0  0  0  0
   11.5315    6.2257   46.0742 H   0  0  0  0  0  0  0  0  0  0  0  0
   11.6076    9.5293   44.8709 H   0  0  0  0  0  0  0  0  0  0  0  0
   13.8500    8.1360   40.3840 H   0  0  0  0  0  0  0  0  0  0  0  0
   12.8390   10.9741   39.3402 H   0  0  0  0  0  0  0  0  0  0  0  0
   16.5931   13.0436   42.2079 H   0  0  0  0  0  0  0  0  0  0  0  0
   17.4261   12.6023   40.6788 H   0  0  0  0  0  0  0  0  0  0  0  0
   16.1693   13.8856   40.6788 H   0  0  0  0  0  0  0  0  0  0  0  0
   15.9730   10.3481   43.4091 H   0  0  0  0  0  0  0  0  0  0  0  0
   16.4670    9.0696   42.2480 H   0  0  0  0  0  0  0  0  0  0  0  0
   17.3084   10.6567   42.2480 H   0  0  0  0  0  0  0  0  0  0  0  0
   12.2372    5.5248   43.6375 H   0  0  0  0  0  0  0  0  0  0  0  0
  1  2  1  0
  2  3  1  0
  3  4  1  0
  3  5  1  0
  5  6  1  0
  6  7  2  0
  7  8  1  0
  8  9  2  0
  9 10  1  0
 10 11  1  0
 11 12  1  0
 12 13  2  0
 13 14  1  0
 14 15  1  0
 14 16  1  0
 16 17  1  0
  9 18  1  0
 18 19  2  0
 19  6  1  0
 16 11  2  0
  1 20  1  0
  1 21  1  0
  1 22  1  0
  2 23  1  0
  2 24  1  0
  3 25  1  6
  4 26  1  0
  4 27  1  0
  4 28  1  0
  5 29  1  0
  5 30  1  0
  7 31  1  0
 10 32  1  0
 12 33  1  0
 15 34  1  0
 15 35  1  0
 15 36  1  0
 17 37  1  0
 17 38  1  0
 17 39  1  0
 19 40  1  0
M  CHG  1   2   1
M  END
>  <meeko>  (115) 
{"is_sidechain": false}

>  <vina_energy>  (115) 
-6.82

$$$$

     RDKit          3D

 43 44  0  0  0  0  0  0  0  0999 V2000
   18.3520   14.4220   39.0440 C   0  0  0  0  0  0  0  0  0  0  0  0
   18.4390   14.6930   40.5020 C   0  0  0  0  0  0  0  0  0  0  0  0
   18.3440   13.8660   41.6030 C   0  0  0  0  0  0  0  0  0  0  0  0
   18.1520   12.5330   41.5610 N   0  0  0  0  0  0  0  0  0  0  0  0
   16.9800   11.7800   41.5230 C   0  0  0  0  0  0  0  0  0  0  0  0
   15.9260   12.1560   40.7810 N   0  0  0  0  0  0  0  0  0  0  0  0
   14.8350   11.3760   40.8030 C   0  0  0  0  0  0  0  0  0  0  0  0
   14.7090   10.2580   41.5950 C   0  0  0  0  0  0  0  0  0  0  0  0
   13.4350    9.4800   41.6860 C   0  0  0  0  0  0  0  0  0  0  0  0
   13.4860    8.3140   42.6860 C   0  0  0  0  0  0  0  0  0  0  0  0
   12.5290    8.3920   43.8820 C   0  0  0  0  0  0  0  0  0  0  0  0
   11.4470    7.3370   43.8580 N   0  0  0  0  0  0  0  0  0  0  0  0
   10.5000    7.5150   45.0250 C   0  0  0  0  0  0  0  0  0  0  0  0
   11.9760    5.9300   43.8110 C   0  0  0  0  0  0  0  0  0  0  0  0
   15.8470    9.9330   42.3000 C   0  0  0  0  0  0  0  0  0  0  0  0
   16.9690   10.6780   42.2900 N   0  0  0  0  0  0  0  0  0  0  0  0
   18.4930   14.7210   42.7130 C   0  0  0  0  0  0  0  0  0  0  0  0
   18.6900   15.9910   42.3570 N   0  0  0  0  0  0  0  0  0  0  0  0
   18.6470   15.9530   41.0110 N   0  0  0  0  0  0  0  0  0  0  0  0
   18.8060   17.1830   40.2690 C   0  0  0  0  0  0  0  0  0  0  0  0
   18.0194   13.3860   38.8828 H   0  0  0  0  0  0  0  0  0  0  0  0
   17.6309   15.1142   38.5848 H   0  0  0  0  0  0  0  0  0  0  0  0
   19.3412   14.5652   38.5848 H   0  0  0  0  0  0  0  0  0  0  0  0
   18.9360   11.8920   41.5420 H   0  0  0  0  0  0  0  0  0  0  0  0
   13.9920   11.6458   40.1499 H   0  0  0  0  0  0  0  0  0  0  0  0
   12.6320   10.1656   41.9945 H   0  0  0  0  0  0  0  0  0  0  0  0
   13.2581    9.0409   40.6931 H   0  0  0  0  0  0  0  0  0  0  0  0
   13.2556    7.3908   42.1341 H   0  0  0  0  0  0  0  0  0  0  0  0
   14.4960    8.3487   43.1203 H   0  0  0  0  0  0  0  0  0  0  0  0
   13.1146    8.2693   44.8051 H   0  0  0  0  0  0  0  0  0  0  0  0
   12.0283    9.3702   43.8326 H   0  0  0  0  0  0  0  0  0  0  0  0
   10.8680    7.4800   43.0230 H   0  0  0  0  0  0  0  0  0  0  0  0
   11.0565    7.4104   45.9681 H   0  0  0  0  0  0  0  0  0  0  0  0
   10.0435    8.5147   44.9776 H   0  0  0  0  0  0  0  0  0  0  0  0
    9.7117    6.7493   44.9776 H   0  0  0  0  0  0  0  0  0  0  0  0
   12.1164    5.5566   44.8361 H   0  0  0  0  0  0  0  0  0  0  0  0
   11.2586    5.2860   43.2812 H   0  0  0  0  0  0  0  0  0  0  0  0
   12.9400    5.9182   43.2812 H   0  0  0  0  0  0  0  0  0  0  0  0
   15.8389    9.0141   42.9046 H   0  0  0  0  0  0  0  0  0  0  0  0
   18.4514   14.3788   43.7576 H   0  0  0  0  0  0  0  0  0  0  0  0
   18.9146   18.0231   40.9707 H   0  0  0  0  0  0  0  0  0  0  0  0
   19.7029   17.1159   39.6358 H   0  0  0  0  0  0  0  0  0  0  0  0
   17.9215   17.3462   39.6358 H   0  0  0  0  0  0  0  0  0  0  0  0
  1  2  1  0
  2  3  2  0
  3  4  1  0
  4  5  1  0
  5  6  2  0
  6  7  1  0
  7  8  2  0
  8  9  1  0
  9 10  1  0
 10 11  1  0
 11 12  1  0
 12 13  1  0
 12 14  1  0
  8 15  1  0
 15 16  2  0
  3 17  1  0
 17 18  2  0
 18 19  1  0
 19 20  1  0
 19  2  1  0
 16  5  1  0
  1 21  1  0
  1 22  1  0
  1 23  1  0
  4 24  1  0
  7 25  1  0
  9 26  1  0
  9 27  1  0
 10 28  1  0
 10 29  1  0
 11 30  1  0
 11 31  1  0
 12 32  1  0
 13 33  1  0
 13 34  1  0
 13 35  1  0
 14 36  1  0
 14 37  1  0
 14 38  1  0
 15 39  1  0
 17 40  1  0
 20 41  1  0
 20 42  1  0
 20 43  1  0
M  CHG  1  12   1
M  END
>  <meeko>  (116) 
{"is_sidechain": false}

>  <vina_energy>  (116) 
-6.05

$$$$

     RDKit          3D

 43 44  0  0  0  0  0  0  0  0999 V2000
    8.5650    8.0270   46.7720 C   0  0  0  0  0  0  0  0  0  0  0  0
    8.5320    6.6570   46.1770 N   0  0  0  0  0  0  0  0  0  0  0  0
    9.6240    6.2570   45.1880 C   0  0  0  0  0  0  0  0  0  0  0  0
    9.7740    4.7300   45.2040 C   0  0  0  0  0  0  0  0  0  0  0  0
    9.2190    6.7350   43.7840 C   0  0  0  0  0  0  0  0  0  0  0  0
   10.9580    6.9710   45.5850 C   0  0  0  0  0  0  0  0  0  0  0  0
   11.7920    7.4680   44.4420 C   0  0  0  0  0  0  0  0  0  0  0  0
   11.9920    8.8040   44.1750 C   0  0  0  0  0  0  0  0  0  0  0  0
   12.6520    9.2560   43.0930 N   0  0  0  0  0  0  0  0  0  0  0  0
   13.1680    8.3500   42.2490 C   0  0  0  0  0  0  0  0  0  0  0  0
   13.8250    8.8630   41.1330 N   0  0  0  0  0  0  0  0  0  0  0  0
   14.2610   10.1110   40.8620 C   0  0  0  0  0  0  0  0  0  0  0  0
   13.7190   11.0880   40.0040 C   0  0  0  0  0  0  0  0  0  0  0  0
   14.4270   12.2190   40.0080 N   0  0  0  0  0  0  0  0  0  0  0  0
   15.4420   11.9540   40.8520 N   0  0  0  0  0  0  0  0  0  0  0  0
   16.4430   12.9700   41.0900 C   0  0  0  0  0  0  0  0  0  0  0  0
   15.3840   10.6980   41.4080 C   0  0  0  0  0  0  0  0  0  0  0  0
   16.3950   10.2070   42.3780 C   0  0  0  0  0  0  0  0  0  0  0  0
   13.0400    7.0280   42.4450 N   0  0  0  0  0  0  0  0  0  0  0  0
   12.3940    6.6150   43.5440 C   0  0  0  0  0  0  0  0  0  0  0  0
    8.5632    7.9503   47.8693 H   0  0  0  0  0  0  0  0  0  0  0  0
    9.4760    8.5481   46.4424 H   0  0  0  0  0  0  0  0  0  0  0  0
    7.6802    8.5913   46.4424 H   0  0  0  0  0  0  0  0  0  0  0  0
    7.6130    6.5590   45.7180 H   0  0  0  0  0  0  0  0  0  0  0  0
    8.5170    5.9860   46.9570 H   0  0  0  0  0  0  0  0  0  0  0  0
    9.8088    4.3759   46.2449 H   0  0  0  0  0  0  0  0  0  0  0  0
    8.9165    4.2719   44.6893 H   0  0  0  0  0  0  0  0  0  0  0  0
   10.7042    4.4475   44.6893 H   0  0  0  0  0  0  0  0  0  0  0  0
    8.5102    7.5716   43.8718 H   0  0  0  0  0  0  0  0  0  0  0  0
   10.1138    7.0683   43.2378 H   0  0  0  0  0  0  0  0  0  0  0  0
    8.7433    5.9071   43.2378 H   0  0  0  0  0  0  0  0  0  0  0  0
   10.7046    7.8334   46.2191 H   0  0  0  0  0  0  0  0  0  0  0  0
   11.5674    6.2091   46.0932 H   0  0  0  0  0  0  0  0  0  0  0  0
   11.5903    9.5420   44.8850 H   0  0  0  0  0  0  0  0  0  0  0  0
   13.9330    8.1160   40.4590 H   0  0  0  0  0  0  0  0  0  0  0  0
   12.8134   10.9356   39.3985 H   0  0  0  0  0  0  0  0  0  0  0  0
   16.5770   13.1060   42.1733 H   0  0  0  0  0  0  0  0  0  0  0  0
   17.3965   12.6581   40.6389 H   0  0  0  0  0  0  0  0  0  0  0  0
   16.1169   13.9188   40.6389 H   0  0  0  0  0  0  0  0  0  0  0  0
   16.0352   10.3818   43.4027 H   0  0  0  0  0  0  0  0  0  0  0  0
   16.5571    9.1298   42.2250 H   0  0  0  0  0  0  0  0  0  0  0  0
   17.3418   10.7456   42.2250 H   0  0  0  0  0  0  0  0  0  0  0  0
   12.3416    5.5338   43.7398 H   0  0  0  0  0  0  0  0  0  0  0  0
  1  2  1  0
  2  3  1  0
  3  4  1  0
  3  5  1  0
  3  6  1  0
  6  7  1  0
  7  8  2  0
  8  9  1  0
  9 10  2  0
 10 11  1  0
 11 12  1  0
 12 13  1  0
 13 14  2  0
 14 15  1  0
 15 16  1  0
 15 17  1  0
 17 18  1  0
 10 19  1  0
 19 20  2  0
 20  7  1  0
 17 12  2  0
  1 21  1  0
  1 22  1  0
  1 23  1  0
  2 24  1  0
  2 25  1  0
  4 26  1  0
  4 27  1  0
  4 28  1  0
  5 29  1  0
  5 30  1  0
  5 31  1  0
  6 32  1  0
  6 33  1  0
  8 34  1  0
 11 35  1  0
 13 36  1  0
 16 37  1  0
 16 38  1  0
 16 39  1  0
 18 40  1  0
 18 41  1  0
 18 42  1  0
 20 43  1  0
M  CHG  1   2   1
M  END
>  <meeko>  (117) 
{"is_sidechain": false}

>  <vina_energy>  (117) 
-6.51

$$$$

     RDKit          3D

 41 42  0  0  0  0  0  0  0  0999 V2000
   16.0950   10.3440   42.1720 C   0  0  0  0  0  0  0  0  0  0  0  0
   15.5940   11.3580   41.2090 C   0  0  0  0  0  0  0  0  0  0  0  0
   14.4400   11.4310   40.4570 C   0  0  0  0  0  0  0  0  0  0  0  0
   13.4530   10.5120   40.4540 N   0  0  0  0  0  0  0  0  0  0  0  0
   13.1490    9.4980   41.3590 C   0  0  0  0  0  0  0  0  0  0  0  0
   12.9240    9.7550   42.6570 N   0  0  0  0  0  0  0  0  0  0  0  0
   12.6390    8.7210   43.4650 C   0  0  0  0  0  0  0  0  0  0  0  0
   12.6020    7.4110   43.0480 C   0  0  0  0  0  0  0  0  0  0  0  0
   12.3560    6.2740   43.9790 C   0  0  0  0  0  0  0  0  0  0  0  0
   10.9270    5.8010   44.0660 N   0  0  1  0  0  0  0  0  0  0  0  0
   10.7020    4.6520   45.0080 C   0  0  0  0  0  0  0  0  0  0  0  0
    9.8900    6.9140   44.2490 C   0  0  0  0  0  0  0  0  0  0  0  0
    9.6740    7.1820   45.7380 C   0  0  0  0  0  0  0  0  0  0  0  0
    8.4530    6.9000   46.2620 N   0  0  0  0  0  0  0  0  0  0  0  0
   10.5880    7.6480   46.4150 O   0  0  0  0  0  0  0  0  0  0  0  0
   12.8300    7.2440   41.7000 C   0  0  0  0  0  0  0  0  0  0  0  0
   13.1080    8.2530   40.8560 N   0  0  0  0  0  0  0  0  0  0  0  0
   14.5490   12.6370   39.7370 C   0  0  0  0  0  0  0  0  0  0  0  0
   15.6780   13.2940   40.0110 N   0  0  0  0  0  0  0  0  0  0  0  0
   16.3020   12.4960   40.8980 N   0  0  0  0  0  0  0  0  0  0  0  0
   17.5910   12.8930   41.4180 C   0  0  0  0  0  0  0  0  0  0  0  0
   15.9208   10.6965   43.1993 H   0  0  0  0  0  0  0  0  0  0  0  0
   15.5624    9.3945   42.0149 H   0  0  0  0  0  0  0  0  0  0  0  0
   17.1728   10.1902   42.0149 H   0  0  0  0  0  0  0  0  0  0  0  0
   12.7680   10.4880   39.7100 H   0  0  0  0  0  0  0  0  0  0  0  0
   12.4225    8.9343   44.5222 H   0  0  0  0  0  0  0  0  0  0  0  0
   12.9737    5.4260   43.6483 H   0  0  0  0  0  0  0  0  0  0  0  0
   12.6116    6.6457   44.9822 H   0  0  0  0  0  0  0  0  0  0  0  0
   10.6880    5.4160   43.1340 H   0  0  0  0  0  0  0  0  0  0  0  0
   10.7720    5.0096   46.0459 H   0  0  0  0  0  0  0  0  0  0  0  0
    9.7032    4.2252   44.8338 H   0  0  0  0  0  0  0  0  0  0  0  0
   11.4660    3.8800   44.8338 H   0  0  0  0  0  0  0  0  0  0  0  0
   10.2499    7.8320   43.7614 H   0  0  0  0  0  0  0  0  0  0  0  0
    8.9382    6.6012   43.7949 H   0  0  0  0  0  0  0  0  0  0  0  0
    8.3180    7.0500   47.2580 H   0  0  0  0  0  0  0  0  0  0  0  0
    7.6980    6.4360   45.7720 H   0  0  0  0  0  0  0  0  0  0  0  0
   12.7818    6.2246   41.2895 H   0  0  0  0  0  0  0  0  0  0  0  0
   13.7886   12.9969   39.0283 H   0  0  0  0  0  0  0  0  0  0  0  0
   17.5614   12.8839   42.5176 H   0  0  0  0  0  0  0  0  0  0  0  0
   18.3606   12.1903   41.0661 H   0  0  0  0  0  0  0  0  0  0  0  0
   17.8319   13.9070   41.0661 H   0  0  0  0  0  0  0  0  0  0  0  0
  1  2  1  0
  2  3  2  0
  3  4  1  0
  4  5  1  0
  5  6  2  0
  6  7  1  0
  7  8  2  0
  8  9  1  0
  9 10  1  0
 10 11  1  0
 10 12  1  0
 12 13  1  0
 13 14  1  0
 13 15  2  0
  8 16  1  0
 16 17  2  0
  3 18  1  0
 18 19  2  0
 19 20  1  0
 20 21  1  0
 20  2  1  0
 17  5  1  0
  1 22  1  0
  1 23  1  0
  1 24  1  0
  4 25  1  0
  7 26  1  0
  9 27  1  0
  9 28  1  0
 10 29  1  6
 11 30  1  0
 11 31  1  0
 11 32  1  0
 12 33  1  0
 12 34  1  0
 14 35  1  0
 14 36  1  0
 16 37  1  0
 18 38  1  0
 21 39  1  0
 21 40  1  0
 21 41  1  0
M  CHG  1  10   1
M  END
>  <meeko>  (118) 
{"is_sidechain": false}

>  <vina_energy>  (118) 
-6.95

$$$$

     RDKit          3D

 38 39  0  0  0  0  0  0  0  0999 V2000
   15.4870   13.5540   39.1870 C   0  0  0  0  0  0  0  0  0  0  0  0
   16.1780   12.7430   40.2200 C   0  0  0  0  0  0  0  0  0  0  0  0
   15.8650   11.5360   40.8090 C   0  0  0  0  0  0  0  0  0  0  0  0
   14.7730   10.7980   40.5320 N   0  0  0  0  0  0  0  0  0  0  0  0
   14.1510    9.7720   41.2460 C   0  0  0  0  0  0  0  0  0  0  0  0
   13.2860    9.0280   40.5380 N   0  0  0  0  0  0  0  0  0  0  0  0
   12.6650    8.0210   41.1850 C   0  0  0  0  0  0  0  0  0  0  0  0
   12.8570    7.7280   42.5170 C   0  0  0  0  0  0  0  0  0  0  0  0
   12.1180    6.6360   43.2330 C   0  0  0  0  0  0  0  0  0  0  0  0
   10.9370    7.1040   44.0780 C   0  0  0  0  0  0  0  0  0  0  0  0
   10.5920    8.2860   44.1040 O   0  0  0  0  0  0  0  0  0  0  0  0
   10.2690    6.1280   44.8180 N   0  0  0  0  0  0  0  0  0  0  0  0
   10.7600    4.7730   45.0260 C   0  0  0  0  0  0  0  0  0  0  0  0
    9.2000    6.5560   45.7080 C   0  0  0  0  0  0  0  0  0  0  0  0
   13.7610    8.5500   43.1510 C   0  0  0  0  0  0  0  0  0  0  0  0
   14.4070    9.5660   42.5470 N   0  0  0  0  0  0  0  0  0  0  0  0
   16.9130   11.2900   41.7190 C   0  0  0  0  0  0  0  0  0  0  0  0
   17.8290   12.2620   41.7150 N   0  0  0  0  0  0  0  0  0  0  0  0
   17.3680   13.1270   40.7940 N   0  0  0  0  0  0  0  0  0  0  0  0
   18.1250   14.3250   40.5140 C   0  0  0  0  0  0  0  0  0  0  0  0
   14.8481   14.3039   39.6764 H   0  0  0  0  0  0  0  0  0  0  0  0
   16.2340   14.0621   38.5595 H   0  0  0  0  0  0  0  0  0  0  0  0
   14.8667   12.8971   38.5595 H   0  0  0  0  0  0  0  0  0  0  0  0
   14.2510   10.9220   39.6760 H   0  0  0  0  0  0  0  0  0  0  0  0
   11.9625    7.3957   40.6144 H   0  0  0  0  0  0  0  0  0  0  0  0
   11.7399    5.9290   42.4798 H   0  0  0  0  0  0  0  0  0  0  0  0
   12.8373    6.1852   43.9325 H   0  0  0  0  0  0  0  0  0  0  0  0
   10.8332    4.5711   46.1048 H   0  0  0  0  0  0  0  0  0  0  0  0
   10.0645    4.0562   44.5651 H   0  0  0  0  0  0  0  0  0  0  0  0
   11.7533    4.6681   44.5651 H   0  0  0  0  0  0  0  0  0  0  0  0
    9.5195    6.4281   46.7528 H   0  0  0  0  0  0  0  0  0  0  0  0
    8.9701    7.6155   45.5219 H   0  0  0  0  0  0  0  0  0  0  0  0
    8.3024    5.9479   45.5219 H   0  0  0  0  0  0  0  0  0  0  0  0
   13.9684    8.3660   44.2155 H   0  0  0  0  0  0  0  0  0  0  0  0
   16.9700   10.3980   42.3602 H   0  0  0  0  0  0  0  0  0  0  0  0
   18.4245   14.7990   41.4604 H   0  0  0  0  0  0  0  0  0  0  0  0
   19.0227   14.0644   39.9342 H   0  0  0  0  0  0  0  0  0  0  0  0
   17.5042   15.0239   39.9342 H   0  0  0  0  0  0  0  0  0  0  0  0
  1  2  1  0
  2  3  2  0
  3  4  1  0
  4  5  1  0
  5  6  2  0
  6  7  1  0
  7  8  2  0
  8  9  1  0
  9 10  1  0
 10 11  2  0
 10 12  1  0
 12 13  1  0
 12 14  1  0
  8 15  1  0
 15 16  2  0
  3 17  1  0
 17 18  2  0
 18 19  1  0
 19 20  1  0
 19  2  1  0
 16  5  1  0
  1 21  1  0
  1 22  1  0
  1 23  1  0
  4 24  1  0
  7 25  1  0
  9 26  1  0
  9 27  1  0
 13 28  1  0
 13 29  1  0
 13 30  1  0
 14 31  1  0
 14 32  1  0
 14 33  1  0
 15 34  1  0
 17 35  1  0
 20 36  1  0
 20 37  1  0
 20 38  1  0
M  END
>  <meeko>  (119) 
{"is_sidechain": false}

>  <vina_energy>  (119) 
-6.80

$$$$

     RDKit          3D

 41 42  0  0  0  0  0  0  0  0999 V2000
   18.2910   14.3980   39.0350 C   0  0  0  0  0  0  0  0  0  0  0  0
   18.3920   14.7030   40.4840 C   0  0  0  0  0  0  0  0  0  0  0  0
   18.3380   13.8920   41.6000 C   0  0  0  0  0  0  0  0  0  0  0  0
   18.1560   12.5580   41.5770 N   0  0  0  0  0  0  0  0  0  0  0  0
   16.9890   11.7910   41.5560 C   0  0  0  0  0  0  0  0  0  0  0  0
   17.0110   10.7010   42.3420 N   0  0  0  0  0  0  0  0  0  0  0  0
   15.9020    9.9370   42.3610 C   0  0  0  0  0  0  0  0  0  0  0  0
   14.7640   10.2080   41.6340 C   0  0  0  0  0  0  0  0  0  0  0  0
   13.5540    9.3240   41.6730 C   0  0  0  0  0  0  0  0  0  0  0  0
   13.5960    8.3000   42.8110 C   0  0  0  0  0  0  0  0  0  0  0  0
   12.4090    8.4030   43.7580 C   0  0  0  0  0  0  0  0  0  0  0  0
   12.0380    9.4950   44.1890 O   0  0  0  0  0  0  0  0  0  0  0  0
   11.7940    7.2110   44.1320 N   0  0  0  0  0  0  0  0  0  0  0  0
   12.1420    5.9000   43.6090 C   0  0  0  0  0  0  0  0  0  0  0  0
   10.5810    7.2720   44.9340 C   0  0  0  0  0  0  0  0  0  0  0  0
   14.8440   11.3430   40.8580 C   0  0  0  0  0  0  0  0  0  0  0  0
   15.9340   12.1370   40.8050 N   0  0  0  0  0  0  0  0  0  0  0  0
   18.5110   14.7610   42.6950 C   0  0  0  0  0  0  0  0  0  0  0  0
   18.6590   16.0330   42.3130 N   0  0  0  0  0  0  0  0  0  0  0  0
   18.5740   15.9740   40.9720 N   0  0  0  0  0  0  0  0  0  0  0  0
   18.6960   17.1990   40.2170 C   0  0  0  0  0  0  0  0  0  0  0  0
   17.9478   13.3615   38.9015 H   0  0  0  0  0  0  0  0  0  0  0  0
   17.5726   15.0856   38.5648 H   0  0  0  0  0  0  0  0  0  0  0  0
   19.2778   14.5209   38.5648 H   0  0  0  0  0  0  0  0  0  0  0  0
   18.9350   11.9160   41.5840 H   0  0  0  0  0  0  0  0  0  0  0  0
   15.9053    9.0398   42.9974 H   0  0  0  0  0  0  0  0  0  0  0  0
   12.6628    9.9556   41.8028 H   0  0  0  0  0  0  0  0  0  0  0  0
   13.5263    8.7631   40.7272 H   0  0  0  0  0  0  0  0  0  0  0  0
   13.6063    7.2912   42.3726 H   0  0  0  0  0  0  0  0  0  0  0  0
   14.5017    8.5052   43.4005 H   0  0  0  0  0  0  0  0  0  0  0  0
   12.3255    5.2087   44.4447 H   0  0  0  0  0  0  0  0  0  0  0  0
   11.3138    5.5192   42.9933 H   0  0  0  0  0  0  0  0  0  0  0  0
   13.0500    5.9801   42.9933 H   0  0  0  0  0  0  0  0  0  0  0  0
   10.8462    7.2587   46.0015 H   0  0  0  0  0  0  0  0  0  0  0  0
   10.0351    8.1987   44.7033 H   0  0  0  0  0  0  0  0  0  0  0  0
    9.9449    6.4047   44.7033 H   0  0  0  0  0  0  0  0  0  0  0  0
   13.9711   11.6176   40.2476 H   0  0  0  0  0  0  0  0  0  0  0  0
   18.5229   14.4305   43.7441 H   0  0  0  0  0  0  0  0  0  0  0  0
   18.7807   18.0495   40.9094 H   0  0  0  0  0  0  0  0  0  0  0  0
   19.5938   17.1513   39.5833 H   0  0  0  0  0  0  0  0  0  0  0  0
   17.8064   17.3293   39.5833 H   0  0  0  0  0  0  0  0  0  0  0  0
  1  2  1  0
  2  3  2  0
  3  4  1  0
  4  5  1  0
  5  6  2  0
  6  7  1  0
  7  8  2  0
  8  9  1  0
  9 10  1  0
 10 11  1  0
 11 12  2  0
 11 13  1  0
 13 14  1  0
 13 15  1  0
  8 16  1  0
 16 17  2  0
  3 18  1  0
 18 19  2  0
 19 20  1  0
 20 21  1  0
 20  2  1  0
 17  5  1  0
  1 22  1  0
  1 23  1  0
  1 24  1  0
  4 25  1  0
  7 26  1  0
  9 27  1  0
  9 28  1  0
 10 29  1  0
 10 30  1  0
 14 31  1  0
 14 32  1  0
 14 33  1  0
 15 34  1  0
 15 35  1  0
 15 36  1  0
 16 37  1  0
 18 38  1  0
 21 39  1  0
 21 40  1  0
 21 41  1  0
M  END
>  <meeko>  (120) 
{"is_sidechain": false}

>  <vina_energy>  (120) 
-6.56

$$$$

     RDKit          3D

 40 41  0  0  0  0  0  0  0  0999 V2000
   19.1370   14.7620   39.3160 C   0  0  0  0  0  0  0  0  0  0  0  0
   18.9460   15.0160   40.7650 C   0  0  0  0  0  0  0  0  0  0  0  0
   18.5930   14.1870   41.8110 C   0  0  0  0  0  0  0  0  0  0  0  0
   18.3320   12.8690   41.7030 N   0  0  0  0  0  0  0  0  0  0  0  0
   17.1330   12.1820   41.5140 C   0  0  0  0  0  0  0  0  0  0  0  0
   16.2920   12.7330   40.6230 N   0  0  0  0  0  0  0  0  0  0  0  0
   15.1170   12.1040   40.4080 C   0  0  0  0  0  0  0  0  0  0  0  0
   14.7450   10.9400   41.0410 C   0  0  0  0  0  0  0  0  0  0  0  0
   13.4340   10.2690   40.7960 C   0  0  0  0  0  0  0  0  0  0  0  0
   12.9130    9.6410   41.9920 N   0  0  0  0  0  0  0  0  0  0  0  0
   12.7610    8.2820   42.0590 C   0  0  0  0  0  0  0  0  0  0  0  0
   13.0760    7.5470   41.1250 O   0  0  0  0  0  0  0  0  0  0  0  0
   12.2220    7.8120   43.2450 N   0  0  0  0  0  0  0  0  0  0  0  0
   11.9630    6.3860   43.3440 C   0  0  0  0  0  0  0  0  0  0  0  0
   12.2500    8.5320   44.5120 C   0  0  0  0  0  0  0  0  0  0  0  0
   15.6720   10.4590   41.9360 C   0  0  0  0  0  0  0  0  0  0  0  0
   16.8550   11.0530   42.1860 N   0  0  0  0  0  0  0  0  0  0  0  0
   18.5790   15.0180   42.9480 C   0  0  0  0  0  0  0  0  0  0  0  0
   18.8950   16.2840   42.6580 N   0  0  0  0  0  0  0  0  0  0  0  0
   19.1090   16.2580   41.3300 N   0  0  0  0  0  0  0  0  0  0  0  0
   19.4800   17.4800   40.6550 C   0  0  0  0  0  0  0  0  0  0  0  0
   19.7930   13.8896   39.1800 H   0  0  0  0  0  0  0  0  0  0  0  0
   18.1620   14.5642   38.8468 H   0  0  0  0  0  0  0  0  0  0  0  0
   19.5976   15.6438   38.8468 H   0  0  0  0  0  0  0  0  0  0  0  0
   19.0670   12.1760   41.7530 H   0  0  0  0  0  0  0  0  0  0  0  0
   14.4165   12.5475   39.6851 H   0  0  0  0  0  0  0  0  0  0  0  0
   12.7108   11.0202   40.4457 H   0  0  0  0  0  0  0  0  0  0  0  0
   13.5904    9.4842   40.0413 H   0  0  0  0  0  0  0  0  0  0  0  0
   12.2170   10.1640   42.4990 H   0  0  0  0  0  0  0  0  0  0  0  0
   11.9103    6.0956   44.4037 H   0  0  0  0  0  0  0  0  0  0  0  0
   11.0076    6.1518   42.8517 H   0  0  0  0  0  0  0  0  0  0  0  0
   12.7750    5.8308   42.8517 H   0  0  0  0  0  0  0  0  0  0  0  0
   12.2220    7.8123   45.3434 H   0  0  0  0  0  0  0  0  0  0  0  0
   13.1720    9.1286   44.5744 H   0  0  0  0  0  0  0  0  0  0  0  0
   11.3771    9.1984   44.5744 H   0  0  0  0  0  0  0  0  0  0  0  0
   15.4330    9.5335   42.4805 H   0  0  0  0  0  0  0  0  0  0  0  0
   18.3354   14.6649   43.9609 H   0  0  0  0  0  0  0  0  0  0  0  0
   19.7150   18.2539   41.4006 H   0  0  0  0  0  0  0  0  0  0  0  0
   20.3632   17.2974   40.0252 H   0  0  0  0  0  0  0  0  0  0  0  0
   18.6444   17.8192   40.0252 H   0  0  0  0  0  0  0  0  0  0  0  0
  1  2  1  0
  2  3  2  0
  3  4  1  0
  4  5  1  0
  5  6  2  0
  6  7  1  0
  7  8  2  0
  8  9  1  0
  9 10  1  0
 10 11  1  0
 11 12  2  0
 11 13  1  0
 13 14  1  0
 13 15  1  0
  8 16  1  0
 16 17  2  0
  3 18  1  0
 18 19  2  0
 19 20  1  0
 20 21  1  0
 20  2  1  0
 17  5  1  0
  1 22  1  0
  1 23  1  0
  1 24  1  0
  4 25  1  0
  7 26  1  0
  9 27  1  0
  9 28  1  0
 10 29  1  0
 14 30  1  0
 14 31  1  0
 14 32  1  0
 15 33  1  0
 15 34  1  0
 15 35  1  0
 16 36  1  0
 18 37  1  0
 21 38  1  0
 21 39  1  0
 21 40  1  0
M  END
>  <meeko>  (121) 
{"is_sidechain": false}

>  <vina_energy>  (121) 
-6.33

$$$$

     RDKit          3D

 41 42  0  0  0  0  0  0  0  0999 V2000
   10.0560    6.6060   44.5480 C   0  0  0  0  0  0  0  0  0  0  0  0
   10.4640    7.9680   44.1190 N   0  0  0  0  0  0  0  0  0  0  0  0
   11.8920    8.3350   44.4480 C   0  0  0  0  0  0  0  0  0  0  0  0
   12.7860    8.1690   43.2180 C   0  0  0  0  0  0  0  0  0  0  0  0
   13.4030    7.1170   43.0550 O   0  0  0  0  0  0  0  0  0  0  0  0
   12.8420    9.2390   42.3610 N   0  0  0  0  0  0  0  0  0  0  0  0
   13.7620    9.2510   41.2340 C   0  0  0  0  0  0  0  0  0  0  0  0
   14.7600   10.3490   41.3740 C   0  0  0  0  0  0  0  0  0  0  0  0
   15.8740   10.2450   42.1770 C   0  0  0  0  0  0  0  0  0  0  0  0
   16.7590   11.2440   42.3680 N   0  0  0  0  0  0  0  0  0  0  0  0
   16.5320   12.4030   41.7270 C   0  0  0  0  0  0  0  0  0  0  0  0
   17.4700   13.4090   41.9510 N   0  0  0  0  0  0  0  0  0  0  0  0
   18.6370   13.6830   41.3330 C   0  0  0  0  0  0  0  0  0  0  0  0
   19.9570   13.3940   41.7310 C   0  0  0  0  0  0  0  0  0  0  0  0
   20.8610   13.8170   40.8440 N   0  0  0  0  0  0  0  0  0  0  0  0
   20.1160   14.3980   39.8860 N   0  0  0  0  0  0  0  0  0  0  0  0
   20.7770   14.9980   38.7500 C   0  0  0  0  0  0  0  0  0  0  0  0
   18.7630   14.3330   40.1220 C   0  0  0  0  0  0  0  0  0  0  0  0
   17.7580   14.8970   39.1860 C   0  0  0  0  0  0  0  0  0  0  0  0
   15.4680   12.5980   40.9300 N   0  0  0  0  0  0  0  0  0  0  0  0
   14.6150   11.5730   40.7620 C   0  0  0  0  0  0  0  0  0  0  0  0
   10.0412    6.5567   45.6468 H   0  0  0  0  0  0  0  0  0  0  0  0
    9.0519    6.3840   44.1575 H   0  0  0  0  0  0  0  0  0  0  0  0
   10.7727    5.8685   44.1575 H   0  0  0  0  0  0  0  0  0  0  0  0
   10.2720    8.1030   43.1200 H   0  0  0  0  0  0  0  0  0  0  0  0
    9.8720    8.6440   44.6330 H   0  0  0  0  0  0  0  0  0  0  0  0
   11.9284    9.3821   44.7831 H   0  0  0  0  0  0  0  0  0  0  0  0
   12.2557    7.6686   45.2441 H   0  0  0  0  0  0  0  0  0  0  0  0
   12.4350   10.1310   42.6200 H   0  0  0  0  0  0  0  0  0  0  0  0
   14.2905    8.2873   41.1903 H   0  0  0  0  0  0  0  0  0  0  0  0
   13.1857    9.4153   40.3116 H   0  0  0  0  0  0  0  0  0  0  0  0
   16.0523    9.2902   42.6932 H   0  0  0  0  0  0  0  0  0  0  0  0
   17.1520   13.9590   42.7380 H   0  0  0  0  0  0  0  0  0  0  0  0
   20.2142   12.8777   42.6676 H   0  0  0  0  0  0  0  0  0  0  0  0
   21.5485   15.6983   39.1025 H   0  0  0  0  0  0  0  0  0  0  0  0
   21.2465   14.2112   38.1413 H   0  0  0  0  0  0  0  0  0  0  0  0
   20.0392   15.5413   38.1413 H   0  0  0  0  0  0  0  0  0  0  0  0
   16.9396   15.3563   39.7599 H   0  0  0  0  0  0  0  0  0  0  0  0
   18.2344   15.6595   38.5523 H   0  0  0  0  0  0  0  0  0  0  0  0
   17.3553   14.0931   38.5523 H   0  0  0  0  0  0  0  0  0  0  0  0
   13.7513   11.7210   40.0971 H   0  0  0  0  0  0  0  0  0  0  0  0
  1  2  1  0
  2  3  1  0
  3  4  1  0
  4  5  2  0
  4  6  1  0
  6  7  1  0
  7  8  1  0
  8  9  2  0
  9 10  1  0
 10 11  2  0
 11 12  1  0
 12 13  1  0
 13 14  1  0
 14 15  2  0
 15 16  1  0
 16 17  1  0
 16 18  1  0
 18 19  1  0
 11 20  1  0
 20 21  2  0
 21  8  1  0
 18 13  2  0
  1 22  1  0
  1 23  1  0
  1 24  1  0
  2 25  1  0
  2 26  1  0
  3 27  1  0
  3 28  1  0
  6 29  1  0
  7 30  1  0
  7 31  1  0
  9 32  1  0
 12 33  1  0
 14 34  1  0
 17 35  1  0
 17 36  1  0
 17 37  1  0
 19 38  1  0
 19 39  1  0
 19 40  1  0
 21 41  1  0
M  CHG  1   2   1
M  END
>  <meeko>  (122) 
{"is_sidechain": false}

>  <vina_energy>  (122) 
-6.62

$$$$

     RDKit          3D

 39 40  0  0  0  0  0  0  0  0999 V2000
   19.0900   14.7380   39.2960 C   0  0  0  0  0  0  0  0  0  0  0  0
   18.9140   14.9760   40.7500 C   0  0  0  0  0  0  0  0  0  0  0  0
   18.5720   14.1350   41.7900 C   0  0  0  0  0  0  0  0  0  0  0  0
   18.3100   12.8180   41.6680 N   0  0  0  0  0  0  0  0  0  0  0  0
   17.1030   12.1330   41.5200 C   0  0  0  0  0  0  0  0  0  0  0  0
   16.8770   10.9640   42.1380 N   0  0  0  0  0  0  0  0  0  0  0  0
   15.6810   10.3770   41.9360 C   0  0  0  0  0  0  0  0  0  0  0  0
   14.6880   10.9090   41.1440 C   0  0  0  0  0  0  0  0  0  0  0  0
   13.3830   10.2220   40.9040 C   0  0  0  0  0  0  0  0  0  0  0  0
   12.9440    9.6190   42.1240 O   0  0  0  0  0  0  0  0  0  0  0  0
   12.8240    8.2660   42.0590 C   0  0  0  0  0  0  0  0  0  0  0  0
   13.0240    7.6260   41.0330 O   0  0  0  0  0  0  0  0  0  0  0  0
   12.4510    7.7060   43.2680 N   0  0  0  0  0  0  0  0  0  0  0  0
   12.0550    8.5030   44.4170 C   0  0  0  0  0  0  0  0  0  0  0  0
   12.1440    6.2890   43.3200 C   0  0  0  0  0  0  0  0  0  0  0  0
   15.0200   12.1020   40.5450 C   0  0  0  0  0  0  0  0  0  0  0  0
   16.2030   12.7290   40.7170 N   0  0  0  0  0  0  0  0  0  0  0  0
   18.5650   14.9540   42.9360 C   0  0  0  0  0  0  0  0  0  0  0  0
   18.8790   16.2230   42.6570 N   0  0  0  0  0  0  0  0  0  0  0  0
   19.0960   16.2090   41.3290 N   0  0  0  0  0  0  0  0  0  0  0  0
   19.4690   17.4380   40.6680 C   0  0  0  0  0  0  0  0  0  0  0  0
   19.7377   13.8621   39.1436 H   0  0  0  0  0  0  0  0  0  0  0  0
   18.1092   14.5537   38.8333 H   0  0  0  0  0  0  0  0  0  0  0  0
   19.5535   15.6218   38.8333 H   0  0  0  0  0  0  0  0  0  0  0  0
   19.0490   12.1280   41.6770 H   0  0  0  0  0  0  0  0  0  0  0  0
   15.4863    9.4154   42.4335 H   0  0  0  0  0  0  0  0  0  0  0  0
   12.6366   10.9557   40.5656 H   0  0  0  0  0  0  0  0  0  0  0  0
   13.5059    9.4496   40.1305 H   0  0  0  0  0  0  0  0  0  0  0  0
   12.3199    7.9698   45.3419 H   0  0  0  0  0  0  0  0  0  0  0  0
   12.5770    9.4709   44.3894 H   0  0  0  0  0  0  0  0  0  0  0  0
   10.9683    8.6716   44.3894 H   0  0  0  0  0  0  0  0  0  0  0  0
   12.0743    5.9672   44.3696 H   0  0  0  0  0  0  0  0  0  0  0  0
   11.1847    6.1029   42.8149 H   0  0  0  0  0  0  0  0  0  0  0  0
   12.9403    5.7225   42.8149 H   0  0  0  0  0  0  0  0  0  0  0  0
   14.2763   12.5737   39.8858 H   0  0  0  0  0  0  0  0  0  0  0  0
   18.3279   14.5903   43.9467 H   0  0  0  0  0  0  0  0  0  0  0  0
   19.7015   18.2041   41.4223 H   0  0  0  0  0  0  0  0  0  0  0  0
   20.3542   17.2621   40.0391 H   0  0  0  0  0  0  0  0  0  0  0  0
   18.6353   17.7837   40.0391 H   0  0  0  0  0  0  0  0  0  0  0  0
  1  2  1  0
  2  3  2  0
  3  4  1  0
  4  5  1  0
  5  6  2  0
  6  7  1  0
  7  8  2  0
  8  9  1  0
  9 10  1  0
 10 11  1  0
 11 12  2  0
 11 13  1  0
 13 14  1  0
 13 15  1  0
  8 16  1  0
 16 17  2  0
  3 18  1  0
 18 19  2  0
 19 20  1  0
 20 21  1  0
 20  2  1  0
 17  5  1  0
  1 22  1  0
  1 23  1  0
  1 24  1  0
  4 25  1  0
  7 26  1  0
  9 27  1  0
  9 28  1  0
 14 29  1  0
 14 30  1  0
 14 31  1  0
 15 32  1  0
 15 33  1  0
 15 34  1  0
 16 35  1  0
 18 36  1  0
 21 37  1  0
 21 38  1  0
 21 39  1  0
M  END
>  <meeko>  (123) 
{"is_sidechain": false}

>  <vina_energy>  (123) 
-6.18

$$$$

     RDKit          3D

 39 40  0  0  0  0  0  0  0  0999 V2000
    8.4800    8.2410   46.7890 C   0  0  0  0  0  0  0  0  0  0  0  0
    8.4830    6.8510   46.2830 N   0  0  0  0  0  0  0  0  0  0  0  0
    9.5510    6.4920   45.2210 C   0  0  1  0  0  0  0  0  0  0  0  0
   10.9230    7.0580   45.5910 C   0  0  0  0  0  0  0  0  0  0  0  0
   11.7120    7.5140   44.3960 C   0  0  0  0  0  0  0  0  0  0  0  0
   11.9160    8.8470   44.1120 C   0  0  0  0  0  0  0  0  0  0  0  0
   12.6030    9.2980   43.0450 N   0  0  0  0  0  0  0  0  0  0  0  0
   13.1230    8.3750   42.2180 C   0  0  0  0  0  0  0  0  0  0  0  0
   13.8330    8.8850   41.1300 N   0  0  0  0  0  0  0  0  0  0  0  0
   14.2810   10.1290   40.8700 C   0  0  0  0  0  0  0  0  0  0  0  0
   13.7600   11.1130   40.0060 C   0  0  0  0  0  0  0  0  0  0  0  0
   14.4910   12.2320   40.0130 N   0  0  0  0  0  0  0  0  0  0  0  0
   15.4790   11.9600   40.8830 N   0  0  0  0  0  0  0  0  0  0  0  0
   16.4790   12.9680   41.1470 C   0  0  0  0  0  0  0  0  0  0  0  0
   15.4010   10.7040   41.4380 C   0  0  0  0  0  0  0  0  0  0  0  0
   16.3850   10.2000   42.4260 C   0  0  0  0  0  0  0  0  0  0  0  0
   12.9790    7.0560   42.4100 N   0  0  0  0  0  0  0  0  0  0  0  0
   12.2770    6.6480   43.4870 C   0  0  0  0  0  0  0  0  0  0  0  0
    9.4880    4.9520   44.9730 C   0  0  0  0  0  0  0  0  0  0  0  0
   10.4950    4.2730   45.2560 O   0  0  0  0  0  0  0  0  0  0  0  0
    8.3160    4.6360   44.5830 O   0  0  0  0  0  0  0  0  0  0  0  0
    8.4800    8.2308   47.8890 H   0  0  0  0  0  0  0  0  0  0  0  0
    9.3770    8.7649   46.4272 H   0  0  0  0  0  0  0  0  0  0  0  0
    7.5807    8.7610   46.4272 H   0  0  0  0  0  0  0  0  0  0  0  0
    8.8850    6.2940   47.0780 H   0  0  0  0  0  0  0  0  0  0  0  0
    7.5630    6.4580   46.0760 H   0  0  0  0  0  0  0  0  0  0  0  0
    9.3414    6.9750   44.2552 H   0  0  0  0  0  0  0  0  0  0  0  0
   10.7783    7.9162   46.2637 H   0  0  0  0  0  0  0  0  0  0  0  0
   11.4931    6.2500   46.0728 H   0  0  0  0  0  0  0  0  0  0  0  0
   11.4901    9.5908   44.8015 H   0  0  0  0  0  0  0  0  0  0  0  0
   13.9830    8.1230   40.4850 H   0  0  0  0  0  0  0  0  0  0  0  0
   12.8552   10.9758   39.3957 H   0  0  0  0  0  0  0  0  0  0  0  0
   16.5994   13.0893   42.2336 H   0  0  0  0  0  0  0  0  0  0  0  0
   17.4373   12.6587   40.7042 H   0  0  0  0  0  0  0  0  0  0  0  0
   16.1620   13.9238   40.7042 H   0  0  0  0  0  0  0  0  0  0  0  0
   16.0133   10.3904   43.4436 H   0  0  0  0  0  0  0  0  0  0  0  0
   16.5264    9.1185   42.2837 H   0  0  0  0  0  0  0  0  0  0  0  0
   17.3453   10.7172   42.2837 H   0  0  0  0  0  0  0  0  0  0  0  0
   12.1493    5.5673   43.6474 H   0  0  0  0  0  0  0  0  0  0  0  0
  1  2  1  0
  2  3  1  0
  3  4  1  0
  4  5  1  0
  5  6  2  0
  6  7  1  0
  7  8  2  0
  8  9  1  0
  9 10  1  0
 10 11  1  0
 11 12  2  0
 12 13  1  0
 13 14  1  0
 13 15  1  0
 15 16  1  0
  8 17  1  0
 17 18  2  0
  3 19  1  0
 19 20  2  0
 19 21  1  0
 18  5  1  0
 15 10  2  0
  1 22  1  0
  1 23  1  0
  1 24  1  0
  2 25  1  0
  2 26  1  0
  3 27  1  6
  4 28  1  0
  4 29  1  0
  6 30  1  0
  9 31  1  0
 11 32  1  0
 14 33  1  0
 14 34  1  0
 14 35  1  0
 16 36  1  0
 16 37  1  0
 16 38  1  0
 18 39  1  0
M  CHG  2   2   1  21  -1
M  END
>  <meeko>  (124) 
{"is_sidechain": false}

>  <vina_energy>  (124) 
-6.91

$$$$

     RDKit          3D

 35 36  0  0  0  0  0  0  0  0999 V2000
    8.4680    7.8080   46.7630 C   0  0  0  0  0  0  0  0  0  0  0  0
    9.7100    7.3470   46.1920 N   0  0  0  0  0  0  0  0  0  0  0  0
    9.7110    6.4410   45.1520 C   0  0  0  0  0  0  0  0  0  0  0  0
    8.6920    6.0300   44.6050 O   0  0  0  0  0  0  0  0  0  0  0  0
   11.0910    5.9610   44.7430 C   0  0  0  0  0  0  0  0  0  0  0  0
   11.8210    6.9640   43.9080 C   0  0  0  0  0  0  0  0  0  0  0  0
   12.3980    6.6540   42.6970 C   0  0  0  0  0  0  0  0  0  0  0  0
   13.0540    7.5460   41.9280 N   0  0  0  0  0  0  0  0  0  0  0  0
   13.1340    8.8090   42.3800 C   0  0  0  0  0  0  0  0  0  0  0  0
   13.8250    9.6940   41.5520 N   0  0  0  0  0  0  0  0  0  0  0  0
   15.0040   10.3250   41.7160 C   0  0  0  0  0  0  0  0  0  0  0  0
   16.1400    9.9360   42.4530 C   0  0  0  0  0  0  0  0  0  0  0  0
   17.1280   10.8320   42.3750 N   0  0  0  0  0  0  0  0  0  0  0  0
   16.6220   11.7930   41.5820 N   0  0  0  0  0  0  0  0  0  0  0  0
   17.4330   12.9490   41.2760 C   0  0  0  0  0  0  0  0  0  0  0  0
   15.3380   11.5430   41.1600 C   0  0  0  0  0  0  0  0  0  0  0  0
   14.5840   12.4760   40.2860 C   0  0  0  0  0  0  0  0  0  0  0  0
   12.5960    9.2080   43.5430 N   0  0  0  0  0  0  0  0  0  0  0  0
   11.9490    8.2830   44.2770 C   0  0  0  0  0  0  0  0  0  0  0  0
    8.5372    7.7823   47.8605 H   0  0  0  0  0  0  0  0  0  0  0  0
    8.2724    8.8386   46.4319 H   0  0  0  0  0  0  0  0  0  0  0  0
    7.6474    7.1546   46.4319 H   0  0  0  0  0  0  0  0  0  0  0  0
   10.5440    7.4350   46.7570 H   0  0  0  0  0  0  0  0  0  0  0  0
   11.6792    5.7627   45.6511 H   0  0  0  0  0  0  0  0  0  0  0  0
   10.9632    5.0513   44.1379 H   0  0  0  0  0  0  0  0  0  0  0  0
   12.3191    5.6180   42.3358 H   0  0  0  0  0  0  0  0  0  0  0  0
   13.2680    9.8200   40.7170 H   0  0  0  0  0  0  0  0  0  0  0  0
   16.2060    9.0004   43.0277 H   0  0  0  0  0  0  0  0  0  0  0  0
   17.7649   13.4222   42.2119 H   0  0  0  0  0  0  0  0  0  0  0  0
   18.3110   12.6366   40.6916 H   0  0  0  0  0  0  0  0  0  0  0  0
   16.8405   13.6683   40.6916 H   0  0  0  0  0  0  0  0  0  0  0  0
   14.0139   13.1815   40.9083 H   0  0  0  0  0  0  0  0  0  0  0  0
   15.2882   13.0335   39.6510 H   0  0  0  0  0  0  0  0  0  0  0  0
   13.8911   11.9045   39.6510 H   0  0  0  0  0  0  0  0  0  0  0  0
   11.4961    8.6008   45.2277 H   0  0  0  0  0  0  0  0  0  0  0  0
  1  2  1  0
  2  3  1  0
  3  4  2  0
  3  5  1  0
  5  6  1  0
  6  7  2  0
  7  8  1  0
  8  9  2  0
  9 10  1  0
 10 11  1  0
 11 12  1  0
 12 13  2  0
 13 14  1  0
 14 15  1  0
 14 16  1  0
 16 17  1  0
  9 18  1  0
 18 19  2  0
 19  6  1  0
 16 11  2  0
  1 20  1  0
  1 21  1  0
  1 22  1  0
  2 23  1  0
  5 24  1  0
  5 25  1  0
  7 26  1  0
 10 27  1  0
 12 28  1  0
 15 29  1  0
 15 30  1  0
 15 31  1  0
 17 32  1  0
 17 33  1  0
 17 34  1  0
 19 35  1  0
M  END
>  <meeko>  (125) 
{"is_sidechain": false}

>  <vina_energy>  (125) 
-7.14

$$$$

     RDKit          3D

 38 39  0  0  0  0  0  0  0  0999 V2000
    8.5480    7.8240   46.7790 C   0  0  0  0  0  0  0  0  0  0  0  0
    9.1690    7.6520   45.4900 N   0  0  0  0  0  0  0  0  0  0  0  0
   10.0170    6.5920   45.2460 C   0  0  0  0  0  0  0  0  0  0  0  0
   10.3580    5.7850   46.1030 O   0  0  0  0  0  0  0  0  0  0  0  0
   10.4890    6.5340   43.8080 C   0  0  0  0  0  0  0  0  0  0  0  0
   11.9970    6.3080   43.7220 C   0  0  0  0  0  0  0  0  0  0  0  0
   12.6680    7.3750   42.9140 C   0  0  0  0  0  0  0  0  0  0  0  0
   12.6450    7.3920   41.5380 C   0  0  0  0  0  0  0  0  0  0  0  0
   13.2130    8.3580   40.7920 N   0  0  0  0  0  0  0  0  0  0  0  0
   13.8380    9.3530   41.4410 C   0  0  0  0  0  0  0  0  0  0  0  0
   14.4580   10.3980   40.7530 N   0  0  0  0  0  0  0  0  0  0  0  0
   15.5710   11.1040   41.0280 C   0  0  0  0  0  0  0  0  0  0  0  0
   16.6450   10.7960   41.8870 C   0  0  0  0  0  0  0  0  0  0  0  0
   17.5800   11.7510   41.8960 N   0  0  0  0  0  0  0  0  0  0  0  0
   17.0990   12.6710   41.0400 N   0  0  0  0  0  0  0  0  0  0  0  0
   17.8640   13.8720   40.7980 C   0  0  0  0  0  0  0  0  0  0  0  0
   15.8860   12.3340   40.4880 C   0  0  0  0  0  0  0  0  0  0  0  0
   15.1740   13.2070   39.5230 C   0  0  0  0  0  0  0  0  0  0  0  0
   13.9140    9.4260   42.7810 N   0  0  0  0  0  0  0  0  0  0  0  0
   13.3280    8.4390   43.4860 C   0  0  0  0  0  0  0  0  0  0  0  0
    9.2840    7.6202   47.5707 H   0  0  0  0  0  0  0  0  0  0  0  0
    8.1827    8.8571   46.8751 H   0  0  0  0  0  0  0  0  0  0  0  0
    7.7033    7.1260   46.8751 H   0  0  0  0  0  0  0  0  0  0  0  0
    8.7910    8.1670   44.7050 H   0  0  0  0  0  0  0  0  0  0  0  0
    9.9741    5.7078   43.2959 H   0  0  0  0  0  0  0  0  0  0  0  0
   10.2567    7.4969   43.3297 H   0  0  0  0  0  0  0  0  0  0  0  0
   12.4173    6.3123   44.7385 H   0  0  0  0  0  0  0  0  0  0  0  0
   12.1728    5.3406   43.2288 H   0  0  0  0  0  0  0  0  0  0  0  0
   12.1331    6.5689   41.0179 H   0  0  0  0  0  0  0  0  0  0  0  0
   13.9030   10.5820   39.9290 H   0  0  0  0  0  0  0  0  0  0  0  0
   16.7068    9.8735   42.4830 H   0  0  0  0  0  0  0  0  0  0  0  0
   18.1516   14.3234   41.7590 H   0  0  0  0  0  0  0  0  0  0  0  0
   18.7691   13.6211   40.2254 H   0  0  0  0  0  0  0  0  0  0  0  0
   17.2540   14.5861   40.2254 H   0  0  0  0  0  0  0  0  0  0  0  0
   14.5716   13.9456   40.0721 H   0  0  0  0  0  0  0  0  0  0  0  0
   15.9072   13.7290   38.8906 H   0  0  0  0  0  0  0  0  0  0  0  0
   14.5152   12.5937   38.8906 H   0  0  0  0  0  0  0  0  0  0  0  0
   13.3800    8.4861   44.5838 H   0  0  0  0  0  0  0  0  0  0  0  0
  1  2  1  0
  2  3  1  0
  3  4  2  0
  3  5  1  0
  5  6  1  0
  6  7  1  0
  7  8  2  0
  8  9  1  0
  9 10  2  0
 10 11  1  0
 11 12  1  0
 12 13  1  0
 13 14  2  0
 14 15  1  0
 15 16  1  0
 15 17  1  0
 17 18  1  0
 10 19  1  0
 19 20  2  0
 20  7  1  0
 17 12  2  0
  1 21  1  0
  1 22  1  0
  1 23  1  0
  2 24  1  0
  5 25  1  0
  5 26  1  0
  6 27  1  0
  6 28  1  0
  8 29  1  0
 11 30  1  0
 13 31  1  0
 16 32  1  0
 16 33  1  0
 16 34  1  0
 18 35  1  0
 18 36  1  0
 18 37  1  0
 20 38  1  0
M  END
>  <meeko>  (126) 
{"is_sidechain": false}

>  <vina_energy>  (126) 
-6.55

$$$$

     RDKit          3D

 41 42  0  0  0  0  0  0  0  0999 V2000
   10.0090    6.7090   45.3380 C   0  0  0  0  0  0  0  0  0  0  0  0
   10.9140    6.5930   44.2140 N   0  0  0  0  0  0  0  0  0  0  0  0
   11.7240    7.6390   43.8570 C   0  0  0  0  0  0  0  0  0  0  0  0
   11.7140    8.7500   44.3870 O   0  0  0  0  0  0  0  0  0  0  0  0
   12.6860    7.3830   42.6960 C   0  0  0  0  0  0  0  0  0  0  0  0
   13.7970    8.4080   42.7100 N   0  0  0  0  0  0  0  0  0  0  0  0
   13.6970    9.4540   41.6460 C   0  0  0  0  0  0  0  0  0  0  0  0
   14.9150   10.3020   41.5840 C   0  0  0  0  0  0  0  0  0  0  0  0
   14.9770   11.4520   40.8280 C   0  0  0  0  0  0  0  0  0  0  0  0
   16.0460   12.2640   40.7990 N   0  0  0  0  0  0  0  0  0  0  0  0
   17.1190   11.9250   41.5300 C   0  0  0  0  0  0  0  0  0  0  0  0
   18.2690   12.7120   41.5510 N   0  0  0  0  0  0  0  0  0  0  0  0
   18.4230   14.0470   41.6560 C   0  0  0  0  0  0  0  0  0  0  0  0
   18.4260   14.8670   42.8020 C   0  0  0  0  0  0  0  0  0  0  0  0
   18.6140   16.1550   42.5050 N   0  0  0  0  0  0  0  0  0  0  0  0
   18.7280   16.1590   41.1640 N   0  0  0  0  0  0  0  0  0  0  0  0
   18.9390   17.4140   40.4800 C   0  0  0  0  0  0  0  0  0  0  0  0
   18.6190   14.9110   40.5960 C   0  0  0  0  0  0  0  0  0  0  0  0
   18.7120   14.6880   39.1320 C   0  0  0  0  0  0  0  0  0  0  0  0
   17.1510   10.8190   42.2910 N   0  0  0  0  0  0  0  0  0  0  0  0
   16.0600   10.0310   42.3000 C   0  0  0  0  0  0  0  0  0  0  0  0
   10.5785    6.6360   46.2763 H   0  0  0  0  0  0  0  0  0  0  0  0
    9.4946    7.6804   45.2959 H   0  0  0  0  0  0  0  0  0  0  0  0
    9.2663    5.8987   45.2959 H   0  0  0  0  0  0  0  0  0  0  0  0
   11.0930    5.6540   43.8780 H   0  0  0  0  0  0  0  0  0  0  0  0
   13.1178    6.3762   42.7959 H   0  0  0  0  0  0  0  0  0  0  0  0
   12.1353    7.4601   41.7469 H   0  0  0  0  0  0  0  0  0  0  0  0
   13.7130    8.8890   43.6220 H   0  0  0  0  0  0  0  0  0  0  0  0
   14.7190    7.9570   42.6980 H   0  0  0  0  0  0  0  0  0  0  0  0
   13.5587    8.9593   40.6733 H   0  0  0  0  0  0  0  0  0  0  0  0
   12.8424   10.1034   41.8868 H   0  0  0  0  0  0  0  0  0  0  0  0
   14.1036   11.7195   40.2150 H   0  0  0  0  0  0  0  0  0  0  0  0
   19.0700   12.1020   41.4590 H   0  0  0  0  0  0  0  0  0  0  0  0
   18.2889   14.4886   43.8257 H   0  0  0  0  0  0  0  0  0  0  0  0
   19.0740   18.2167   41.2199 H   0  0  0  0  0  0  0  0  0  0  0  0
   19.8376   17.3415   39.8497 H   0  0  0  0  0  0  0  0  0  0  0  0
   18.0661   17.6393   39.8497 H   0  0  0  0  0  0  0  0  0  0  0  0
   19.1288   13.6885   38.9391 H   0  0  0  0  0  0  0  0  0  0  0  0
   17.7091   14.7594   38.6858 H   0  0  0  0  0  0  0  0  0  0  0  0
   19.3670   15.4508   38.6858 H   0  0  0  0  0  0  0  0  0  0  0  0
   16.0841    9.1187   42.9141 H   0  0  0  0  0  0  0  0  0  0  0  0
  1  2  1  0
  2  3  1  0
  3  4  2  0
  3  5  1  0
  5  6  1  0
  6  7  1  0
  7  8  1  0
  8  9  2  0
  9 10  1  0
 10 11  2  0
 11 12  1  0
 12 13  1  0
 13 14  1  0
 14 15  2  0
 15 16  1  0
 16 17  1  0
 16 18  1  0
 18 19  1  0
 11 20  1  0
 20 21  2  0
 21  8  1  0
 18 13  2  0
  1 22  1  0
  1 23  1  0
  1 24  1  0
  2 25  1  0
  5 26  1  0
  5 27  1  0
  6 28  1  0
  6 29  1  0
  7 30  1  0
  7 31  1  0
  9 32  1  0
 12 33  1  0
 14 34  1  0
 17 35  1  0
 17 36  1  0
 17 37  1  0
 19 38  1  0
 19 39  1  0
 19 40  1  0
 21 41  1  0
M  CHG  1   6   1
M  END
>  <meeko>  (127) 
{"is_sidechain": false}

>  <vina_energy>  (127) 
-6.45

$$$$

     RDKit          3D

 37 38  0  0  0  0  0  0  0  0999 V2000
    8.6240    7.7330   46.5450 C   0  0  0  0  0  0  0  0  0  0  0  0
    9.9270    7.2540   46.1560 N   0  0  0  0  0  0  0  0  0  0  0  0
   10.2030    7.0520   44.8270 C   0  0  0  0  0  0  0  0  0  0  0  0
    9.3950    7.1760   43.9190 O   0  0  0  0  0  0  0  0  0  0  0  0
   11.5140    6.6860   44.6480 N   0  0  0  0  0  0  0  0  0  0  0  0
   11.9560    6.3140   43.3230 C   0  0  0  0  0  0  0  0  0  0  0  0
   12.6480    7.4480   42.6480 C   0  0  0  0  0  0  0  0  0  0  0  0
   12.6850    7.5830   41.2790 C   0  0  0  0  0  0  0  0  0  0  0  0
   13.2890    8.6050   40.6390 N   0  0  0  0  0  0  0  0  0  0  0  0
   13.8840    9.5400   41.3990 C   0  0  0  0  0  0  0  0  0  0  0  0
   14.4960   10.5780   40.6950 N   0  0  0  0  0  0  0  0  0  0  0  0
   15.6160   11.2820   40.9490 C   0  0  0  0  0  0  0  0  0  0  0  0
   16.7020   10.9760   41.7930 C   0  0  0  0  0  0  0  0  0  0  0  0
   17.6370   11.9300   41.7840 N   0  0  0  0  0  0  0  0  0  0  0  0
   17.1480   12.8440   40.9270 N   0  0  0  0  0  0  0  0  0  0  0  0
   17.9150   14.0410   40.6640 C   0  0  0  0  0  0  0  0  0  0  0  0
   15.9240   12.5090   40.3970 C   0  0  0  0  0  0  0  0  0  0  0  0
   15.2000   13.3780   39.4380 C   0  0  0  0  0  0  0  0  0  0  0  0
   13.8970    9.4960   42.7410 N   0  0  0  0  0  0  0  0  0  0  0  0
   13.2830    8.4550   43.3360 C   0  0  0  0  0  0  0  0  0  0  0  0
    8.5553    7.7583   47.6426 H   0  0  0  0  0  0  0  0  0  0  0  0
    8.4712    8.7461   46.1446 H   0  0  0  0  0  0  0  0  0  0  0  0
    7.8514    7.0601   46.1446 H   0  0  0  0  0  0  0  0  0  0  0  0
   10.7110    7.5900   46.6960 H   0  0  0  0  0  0  0  0  0  0  0  0
   11.8890    6.1520   45.4180 H   0  0  0  0  0  0  0  0  0  0  0  0
   12.6511    5.4651   43.4017 H   0  0  0  0  0  0  0  0  0  0  0  0
   11.0741    6.0388   42.7259 H   0  0  0  0  0  0  0  0  0  0  0  0
   12.1922    6.8108   40.6700 H   0  0  0  0  0  0  0  0  0  0  0  0
   13.9350   10.7520   39.8720 H   0  0  0  0  0  0  0  0  0  0  0  0
   16.7720   10.0557   42.3915 H   0  0  0  0  0  0  0  0  0  0  0  0
   18.2113   14.5034   41.6171 H   0  0  0  0  0  0  0  0  0  0  0  0
   18.8149   13.7806   40.0874 H   0  0  0  0  0  0  0  0  0  0  0  0
   17.3024   14.7497   40.0874 H   0  0  0  0  0  0  0  0  0  0  0  0
   14.5917   14.1082   39.9919 H   0  0  0  0  0  0  0  0  0  0  0  0
   15.9257   13.9101   38.8054 H   0  0  0  0  0  0  0  0  0  0  0  0
   14.5456   12.7603   38.8054 H   0  0  0  0  0  0  0  0  0  0  0  0
   13.2900    8.4079   44.4350 H   0  0  0  0  0  0  0  0  0  0  0  0
  1  2  1  0
  2  3  1  0
  3  4  2  0
  3  5  1  0
  5  6  1  0
  6  7  1  0
  7  8  2  0
  8  9  1  0
  9 10  2  0
 10 11  1  0
 11 12  1  0
 12 13  1  0
 13 14  2  0
 14 15  1  0
 15 16  1  0
 15 17  1  0
 17 18  1  0
 10 19  1  0
 19 20  2  0
 20  7  1  0
 17 12  2  0
  1 21  1  0
  1 22  1  0
  1 23  1  0
  2 24  1  0
  5 25  1  0
  6 26  1  0
  6 27  1  0
  8 28  1  0
 11 29  1  0
 13 30  1  0
 16 31  1  0
 16 32  1  0
 16 33  1  0
 18 34  1  0
 18 35  1  0
 18 36  1  0
 20 37  1  0
M  END
>  <meeko>  (128) 
{"is_sidechain": false}

>  <vina_energy>  (128) 
-6.83

$$$$

     RDKit          3D

 36 37  0  0  0  0  0  0  0  0999 V2000
   10.6790    6.8500   44.2160 C   0  0  0  0  0  0  0  0  0  0  0  0
   11.2820    8.0100   43.6180 N   0  0  0  0  0  0  0  0  0  0  0  0
   12.5770    8.0220   43.2000 C   0  0  0  0  0  0  0  0  0  0  0  0
   13.3330    7.0640   43.1890 O   0  0  0  0  0  0  0  0  0  0  0  0
   12.9020    9.2760   42.8050 O   0  0  0  0  0  0  0  0  0  0  0  0
   13.4520    9.3320   41.4860 C   0  0  0  0  0  0  0  0  0  0  0  0
   14.6660   10.2020   41.5020 C   0  0  0  0  0  0  0  0  0  0  0  0
   14.7810   11.3410   40.7380 C   0  0  0  0  0  0  0  0  0  0  0  0
   15.8790   12.1230   40.7140 N   0  0  0  0  0  0  0  0  0  0  0  0
   16.9160   11.7550   41.4820 C   0  0  0  0  0  0  0  0  0  0  0  0
   18.0940   12.5020   41.5270 N   0  0  0  0  0  0  0  0  0  0  0  0
   18.2990   13.8320   41.5780 C   0  0  0  0  0  0  0  0  0  0  0  0
   18.4600   14.6780   42.6940 C   0  0  0  0  0  0  0  0  0  0  0  0
   18.6450   15.9540   42.3430 N   0  0  0  0  0  0  0  0  0  0  0  0
   18.5960   15.9210   40.9990 N   0  0  0  0  0  0  0  0  0  0  0  0
   18.7590   17.1530   40.2610 C   0  0  0  0  0  0  0  0  0  0  0  0
   18.3940   14.6650   40.4810 C   0  0  0  0  0  0  0  0  0  0  0  0
   18.3120   14.4020   39.0230 C   0  0  0  0  0  0  0  0  0  0  0  0
   16.9060   10.6560   42.2540 N   0  0  0  0  0  0  0  0  0  0  0  0
   15.7850    9.9040   42.2450 C   0  0  0  0  0  0  0  0  0  0  0  0
   10.7242    6.9369   45.3116 H   0  0  0  0  0  0  0  0  0  0  0  0
    9.6288    6.7770   43.8970 H   0  0  0  0  0  0  0  0  0  0  0  0
   11.2226    5.9485   43.8970 H   0  0  0  0  0  0  0  0  0  0  0  0
   10.8270    8.9100   43.6820 H   0  0  0  0  0  0  0  0  0  0  0  0
   13.7285    8.3190   41.1584 H   0  0  0  0  0  0  0  0  0  0  0  0
   12.7074    9.7458   40.7901 H   0  0  0  0  0  0  0  0  0  0  0  0
   13.9260   11.6306   40.1094 H   0  0  0  0  0  0  0  0  0  0  0  0
   18.8640   11.8470   41.5170 H   0  0  0  0  0  0  0  0  0  0  0  0
   18.4360   14.3273   43.7363 H   0  0  0  0  0  0  0  0  0  0  0  0
   18.8698   17.9905   40.9655 H   0  0  0  0  0  0  0  0  0  0  0  0
   19.6560   17.0853   39.6279 H   0  0  0  0  0  0  0  0  0  0  0  0
   17.8752   17.3209   39.6279 H   0  0  0  0  0  0  0  0  0  0  0  0
   17.9884   13.3641   38.8553 H   0  0  0  0  0  0  0  0  0  0  0  0
   17.5860   15.0908   38.5664 H   0  0  0  0  0  0  0  0  0  0  0  0
   19.3008   14.5561   38.5664 H   0  0  0  0  0  0  0  0  0  0  0  0
   15.7650    8.9985   42.8692 H   0  0  0  0  0  0  0  0  0  0  0  0
  1  2  1  0
  2  3  1  0
  3  4  2  0
  3  5  1  0
  5  6  1  0
  6  7  1  0
  7  8  2  0
  8  9  1  0
  9 10  2  0
 10 11  1  0
 11 12  1  0
 12 13  1  0
 13 14  2  0
 14 15  1  0
 15 16  1  0
 15 17  1  0
 17 18  1  0
 10 19  1  0
 19 20  2  0
 20  7  1  0
 17 12  2  0
  1 21  1  0
  1 22  1  0
  1 23  1  0
  2 24  1  0
  6 25  1  0
  6 26  1  0
  8 27  1  0
 11 28  1  0
 13 29  1  0
 16 30  1  0
 16 31  1  0
 16 32  1  0
 18 33  1  0
 18 34  1  0
 18 35  1  0
 20 36  1  0
M  END
>  <meeko>  (129) 
{"is_sidechain": false}

>  <vina_energy>  (129) 
-6.41

$$$$

     RDKit          3D

 36 37  0  0  0  0  0  0  0  0999 V2000
    8.8540    8.1760   46.7800 C   0  0  0  0  0  0  0  0  0  0  0  0
    8.3710    6.9060   46.2350 N   0  0  0  0  0  0  0  0  0  0  0  0
    9.2540    6.2080   44.9800 S   0  0  0  0  0  0  0  0  0  0  0  0
    8.9840    4.7880   44.9930 O   0  0  0  0  0  0  0  0  0  0  0  0
    8.9790    7.0340   43.8260 O   0  0  0  0  0  0  0  0  0  0  0  0
   10.9390    6.5140   45.5190 C   0  0  0  0  0  0  0  0  0  0  0  0
   11.6950    7.1260   44.3860 C   0  0  0  0  0  0  0  0  0  0  0  0
   12.2790    6.3770   43.3890 C   0  0  0  0  0  0  0  0  0  0  0  0
   12.9610    6.9070   42.3560 N   0  0  0  0  0  0  0  0  0  0  0  0
   13.0850    8.2450   42.3190 C   0  0  0  0  0  0  0  0  0  0  0  0
   13.7980    8.7460   41.2290 N   0  0  0  0  0  0  0  0  0  0  0  0
   14.1830   10.0010   40.9230 C   0  0  0  0  0  0  0  0  0  0  0  0
   13.5810   10.9460   40.0690 C   0  0  0  0  0  0  0  0  0  0  0  0
   14.2660   12.0920   40.0160 N   0  0  0  0  0  0  0  0  0  0  0  0
   15.3060   11.8770   40.8410 N   0  0  0  0  0  0  0  0  0  0  0  0
   16.2760   12.9290   41.0390 C   0  0  0  0  0  0  0  0  0  0  0  0
   15.3060   10.6300   41.4210 C   0  0  0  0  0  0  0  0  0  0  0  0
   16.3590   10.1840   42.3660 C   0  0  0  0  0  0  0  0  0  0  0  0
   12.5630    9.0550   43.2530 N   0  0  0  0  0  0  0  0  0  0  0  0
   11.8920    8.4820   44.2690 C   0  0  0  0  0  0  0  0  0  0  0  0
    8.8377    8.1332   47.8790 H   0  0  0  0  0  0  0  0  0  0  0  0
    9.8831    8.3553   46.4352 H   0  0  0  0  0  0  0  0  0  0  0  0
    8.2041    8.9938   46.4352 H   0  0  0  0  0  0  0  0  0  0  0  0
    8.1030    6.1990   46.9240 H   0  0  0  0  0  0  0  0  0  0  0  0
   10.9349    7.2022   46.3771 H   0  0  0  0  0  0  0  0  0  0  0  0
   11.4147    5.5700   45.8233 H   0  0  0  0  0  0  0  0  0  0  0  0
   12.1828    5.2824   43.4393 H   0  0  0  0  0  0  0  0  0  0  0  0
   14.0250    7.9620   40.6330 H   0  0  0  0  0  0  0  0  0  0  0  0
   12.6523   10.7613   39.5092 H   0  0  0  0  0  0  0  0  0  0  0  0
   16.4258   13.0915   42.1166 H   0  0  0  0  0  0  0  0  0  0  0  0
   17.2307   12.6394   40.5756 H   0  0  0  0  0  0  0  0  0  0  0  0
   15.9101   13.8571   40.5756 H   0  0  0  0  0  0  0  0  0  0  0  0
   16.0109   10.3314   43.3990 H   0  0  0  0  0  0  0  0  0  0  0  0
   16.5731    9.1179   42.1998 H   0  0  0  0  0  0  0  0  0  0  0  0
   17.2737   10.7720   42.1998 H   0  0  0  0  0  0  0  0  0  0  0  0
   11.4774    9.1356   45.0506 H   0  0  0  0  0  0  0  0  0  0  0  0
  1  2  1  0
  2  3  1  0
  3  4  2  0
  3  5  2  0
  3  6  1  0
  6  7  1  0
  7  8  2  0
  8  9  1  0
  9 10  2  0
 10 11  1  0
 11 12  1  0
 12 13  1  0
 13 14  2  0
 14 15  1  0
 15 16  1  0
 15 17  1  0
 17 18  1  0
 10 19  1  0
 19 20  2  0
 20  7  1  0
 17 12  2  0
  1 21  1  0
  1 22  1  0
  1 23  1  0
  2 24  1  0
  6 25  1  0
  6 26  1  0
  8 27  1  0
 11 28  1  0
 13 29  1  0
 16 30  1  0
 16 31  1  0
 16 32  1  0
 18 33  1  0
 18 34  1  0
 18 35  1  0
 20 36  1  0
M  END
>  <meeko>  (130) 
{"is_sidechain": false}

>  <vina_energy>  (130) 
-7.15

$$$$

     RDKit          3D

 32 33  0  0  0  0  0  0  0  0999 V2000
    8.6310    7.6580   46.6030 C   0  0  0  0  0  0  0  0  0  0  0  0
    8.7140    6.9440   45.3730 O   0  0  0  0  0  0  0  0  0  0  0  0
    9.8410    6.0710   45.3150 C   0  0  0  0  0  0  0  0  0  0  0  0
   10.9920    6.6910   44.5900 C   0  0  0  0  0  0  0  0  0  0  0  0
   11.2190    8.0470   44.5840 C   0  0  0  0  0  0  0  0  0  0  0  0
   12.2280    8.6400   43.9160 N   0  0  0  0  0  0  0  0  0  0  0  0
   13.0490    7.8420   43.2090 C   0  0  0  0  0  0  0  0  0  0  0  0
   14.0800    8.4990   42.5370 N   0  0  0  0  0  0  0  0  0  0  0  0
   14.0560    9.5250   41.6640 C   0  0  0  0  0  0  0  0  0  0  0  0
   13.0680    9.8890   40.7260 C   0  0  0  0  0  0  0  0  0  0  0  0
   13.4040   10.9790   40.0300 N   0  0  0  0  0  0  0  0  0  0  0  0
   14.6070   11.3150   40.5300 N   0  0  0  0  0  0  0  0  0  0  0  0
   15.2880   12.4750   40.0030 C   0  0  0  0  0  0  0  0  0  0  0  0
   15.0550   10.4670   41.5160 C   0  0  0  0  0  0  0  0  0  0  0  0
   16.3600   10.6460   42.1970 C   0  0  0  0  0  0  0  0  0  0  0  0
   12.9010    6.5110   43.1430 N   0  0  0  0  0  0  0  0  0  0  0  0
   11.8770    5.9640   43.8280 C   0  0  0  0  0  0  0  0  0  0  0  0
    8.7130    6.9524   47.4428 H   0  0  0  0  0  0  0  0  0  0  0  0
    9.4501    8.3902   46.6579 H   0  0  0  0  0  0  0  0  0  0  0  0
    7.6658    8.1828   46.6579 H   0  0  0  0  0  0  0  0  0  0  0  0
   10.1561    5.8289   46.3407 H   0  0  0  0  0  0  0  0  0  0  0  0
    9.5418    5.1654   44.7669 H   0  0  0  0  0  0  0  0  0  0  0  0
   10.5348    8.6873   45.1600 H   0  0  0  0  0  0  0  0  0  0  0  0
   14.9480    8.0630   42.8160 H   0  0  0  0  0  0  0  0  0  0  0  0
   12.1268    9.3378   40.5834 H   0  0  0  0  0  0  0  0  0  0  0  0
   15.6524   13.0957   40.8349 H   0  0  0  0  0  0  0  0  0  0  0  0
   16.1396   12.1516   39.3864 H   0  0  0  0  0  0  0  0  0  0  0  0
   14.5905   13.0610   39.3864 H   0  0  0  0  0  0  0  0  0  0  0  0
   16.2108   10.6255   43.2866 H   0  0  0  0  0  0  0  0  0  0  0  0
   17.0407    9.8328   41.9048 H   0  0  0  0  0  0  0  0  0  0  0  0
   16.7966   11.6124   41.9048 H   0  0  0  0  0  0  0  0  0  0  0  0
   11.7412    4.8737   43.7746 H   0  0  0  0  0  0  0  0  0  0  0  0
  1  2  1  0
  2  3  1  0
  3  4  1  0
  4  5  2  0
  5  6  1  0
  6  7  2  0
  7  8  1  0
  8  9  1  0
  9 10  1  0
 10 11  2  0
 11 12  1  0
 12 13  1  0
 12 14  1  0
 14 15  1  0
  7 16  1  0
 16 17  2  0
 17  4  1  0
 14  9  2  0
  1 18  1  0
  1 19  1  0
  1 20  1  0
  3 21  1  0
  3 22  1  0
  5 23  1  0
  8 24  1  0
 10 25  1  0
 13 26  1  0
 13 27  1  0
 13 28  1  0
 15 29  1  0
 15 30  1  0
 15 31  1  0
 17 32  1  0
M  END
>  <meeko>  (131) 
{"is_sidechain": false}

>  <vina_energy>  (131) 
-7.61

$$$$

     RDKit          3D

 35 36  0  0  0  0  0  0  0  0999 V2000
    8.6380    8.1160   46.7260 C   0  0  0  0  0  0  0  0  0  0  0  0
    8.3860    6.7680   46.3540 O   0  0  0  0  0  0  0  0  0  0  0  0
    8.9380    6.4180   45.0830 C   0  0  0  0  0  0  0  0  0  0  0  0
   10.3680    5.8830   45.2020 C   0  0  0  0  0  0  0  0  0  0  0  0
   11.3810    6.7000   44.4560 C   0  0  0  0  0  0  0  0  0  0  0  0
   12.4520    6.1330   43.8010 C   0  0  0  0  0  0  0  0  0  0  0  0
   13.3890    6.8370   43.1340 N   0  0  0  0  0  0  0  0  0  0  0  0
   13.2590    8.1740   43.1220 C   0  0  0  0  0  0  0  0  0  0  0  0
   14.2530    8.8610   42.4240 N   0  0  0  0  0  0  0  0  0  0  0  0
   14.1740    9.8350   41.4970 C   0  0  0  0  0  0  0  0  0  0  0  0
   13.1890   10.0670   40.5160 C   0  0  0  0  0  0  0  0  0  0  0  0
   13.4580   11.1450   39.7710 N   0  0  0  0  0  0  0  0  0  0  0  0
   14.6210   11.5950   40.2760 N   0  0  0  0  0  0  0  0  0  0  0  0
   15.2260   12.7730   39.6990 C   0  0  0  0  0  0  0  0  0  0  0  0
   15.0970   10.8460   41.3260 C   0  0  0  0  0  0  0  0  0  0  0  0
   16.3590   11.1720   42.0360 C   0  0  0  0  0  0  0  0  0  0  0  0
   12.2570    8.8210   43.7350 N   0  0  0  0  0  0  0  0  0  0  0  0
   11.3410    8.0750   44.3850 C   0  0  0  0  0  0  0  0  0  0  0  0
    8.6531    8.1970   47.8229 H   0  0  0  0  0  0  0  0  0  0  0  0
    9.6108    8.4323   46.3215 H   0  0  0  0  0  0  0  0  0  0  0  0
    7.8451    8.7623   46.3215 H   0  0  0  0  0  0  0  0  0  0  0  0
    8.3067    5.6431   44.6237 H   0  0  0  0  0  0  0  0  0  0  0  0
    8.9676    7.3276   44.4652 H   0  0  0  0  0  0  0  0  0  0  0  0
   10.6469    5.8709   46.2660 H   0  0  0  0  0  0  0  0  0  0  0  0
   10.3736    4.8777   44.7554 H   0  0  0  0  0  0  0  0  0  0  0  0
   12.5490    5.0375   43.8234 H   0  0  0  0  0  0  0  0  0  0  0  0
   15.1430    8.4930   42.7320 H   0  0  0  0  0  0  0  0  0  0  0  0
   12.3002    9.4337   40.3786 H   0  0  0  0  0  0  0  0  0  0  0  0
   15.5688   13.4405   40.5033 H   0  0  0  0  0  0  0  0  0  0  0  0
   16.0839   12.4774   39.0772 H   0  0  0  0  0  0  0  0  0  0  0  0
   14.4860   13.2981   39.0772 H   0  0  0  0  0  0  0  0  0  0  0  0
   16.1904   11.1285   43.1221 H   0  0  0  0  0  0  0  0  0  0  0  0
   17.1356   10.4450   41.7560 H   0  0  0  0  0  0  0  0  0  0  0  0
   16.6863   12.1842   41.7560 H   0  0  0  0  0  0  0  0  0  0  0  0
   10.5128    8.5953   44.8884 H   0  0  0  0  0  0  0  0  0  0  0  0
  1  2  1  0
  2  3  1  0
  3  4  1  0
  4  5  1  0
  5  6  2  0
  6  7  1  0
  7  8  2  0
  8  9  1  0
  9 10  1  0
 10 11  1  0
 11 12  2  0
 12 13  1  0
 13 14  1  0
 13 15  1  0
 15 16  1  0
  8 17  1  0
 17 18  2  0
 18  5  1  0
 15 10  2  0
  1 19  1  0
  1 20  1  0
  1 21  1  0
  3 22  1  0
  3 23  1  0
  4 24  1  0
  4 25  1  0
  6 26  1  0
  9 27  1  0
 11 28  1  0
 14 29  1  0
 14 30  1  0
 14 31  1  0
 16 32  1  0
 16 33  1  0
 16 34  1  0
 18 35  1  0
M  END
>  <meeko>  (132) 
{"is_sidechain": false}

>  <vina_energy>  (132) 
-6.87

$$$$

     RDKit          3D

 39 40  0  0  0  0  0  0  0  0999 V2000
   10.1020    6.8960   44.3770 C   0  0  0  0  0  0  0  0  0  0  0  0
   10.5410    8.2460   44.2780 O   0  0  0  0  0  0  0  0  0  0  0  0
   11.9340    8.3760   44.5640 C   0  0  0  0  0  0  0  0  0  0  0  0
   12.8260    8.2240   43.3270 C   0  0  0  0  0  0  0  0  0  0  0  0
   13.3540    7.1620   43.0140 O   0  0  0  0  0  0  0  0  0  0  0  0
   12.9390    9.3790   42.5840 N   0  0  0  0  0  0  0  0  0  0  0  0
   13.6420    9.4270   41.3270 C   0  0  0  0  0  0  0  0  0  0  0  0
   14.8690   10.2700   41.4180 C   0  0  0  0  0  0  0  0  0  0  0  0
   15.9170    9.9650   42.2570 C   0  0  0  0  0  0  0  0  0  0  0  0
   17.0410   10.7030   42.3490 N   0  0  0  0  0  0  0  0  0  0  0  0
   17.1340   11.7910   41.5690 C   0  0  0  0  0  0  0  0  0  0  0  0
   18.2580   12.6160   41.5940 N   0  0  0  0  0  0  0  0  0  0  0  0
   18.3750   13.9530   41.7140 C   0  0  0  0  0  0  0  0  0  0  0  0
   18.2390   14.7720   42.8540 C   0  0  0  0  0  0  0  0  0  0  0  0
   18.4270   16.0650   42.5760 N   0  0  0  0  0  0  0  0  0  0  0  0
   18.6780   16.0710   41.2540 N   0  0  0  0  0  0  0  0  0  0  0  0
   18.9320   17.3300   40.5950 C   0  0  0  0  0  0  0  0  0  0  0  0
   18.6670   14.8210   40.6820 C   0  0  0  0  0  0  0  0  0  0  0  0
   18.9270   14.5970   39.2380 C   0  0  0  0  0  0  0  0  0  0  0  0
   16.1680   12.1660   40.7120 N   0  0  0  0  0  0  0  0  0  0  0  0
   15.0620   11.3980   40.6550 C   0  0  0  0  0  0  0  0  0  0  0  0
   10.0112    6.6168   45.4371 H   0  0  0  0  0  0  0  0  0  0  0  0
    9.1236    6.7916   43.8852 H   0  0  0  0  0  0  0  0  0  0  0  0
   10.8318    6.2361   43.8852 H   0  0  0  0  0  0  0  0  0  0  0  0
   12.1091    9.3706   45.0001 H   0  0  0  0  0  0  0  0  0  0  0  0
   12.2001    7.5651   45.2579 H   0  0  0  0  0  0  0  0  0  0  0  0
   12.3860   10.1740   42.8940 H   0  0  0  0  0  0  0  0  0  0  0  0
   13.9310    8.4052   41.0400 H   0  0  0  0  0  0  0  0  0  0  0  0
   12.9735    9.8711   40.5748 H   0  0  0  0  0  0  0  0  0  0  0  0
   15.8322    9.0681   42.8881 H   0  0  0  0  0  0  0  0  0  0  0  0
   19.0690   12.0210   41.4980 H   0  0  0  0  0  0  0  0  0  0  0  0
   18.0047   14.3894   43.8584 H   0  0  0  0  0  0  0  0  0  0  0  0
   19.0901   18.1139   41.3503 H   0  0  0  0  0  0  0  0  0  0  0  0
   19.8301   17.2401   39.9663 H   0  0  0  0  0  0  0  0  0  0  0  0
   18.0693   17.5954   39.9663 H   0  0  0  0  0  0  0  0  0  0  0  0
   19.7556   13.8831   39.1211 H   0  0  0  0  0  0  0  0  0  0  0  0
   18.0228   14.1905   38.7614 H   0  0  0  0  0  0  0  0  0  0  0  0
   19.1952   15.5514   38.7614 H   0  0  0  0  0  0  0  0  0  0  0  0
   14.2651   11.6911   39.9557 H   0  0  0  0  0  0  0  0  0  0  0  0
  1  2  1  0
  2  3  1  0
  3  4  1  0
  4  5  2  0
  4  6  1  0
  6  7  1  0
  7  8  1  0
  8  9  2  0
  9 10  1  0
 10 11  2  0
 11 12  1  0
 12 13  1  0
 13 14  1  0
 14 15  2  0
 15 16  1  0
 16 17  1  0
 16 18  1  0
 18 19  1  0
 11 20  1  0
 20 21  2  0
 21  8  1  0
 18 13  2  0
  1 22  1  0
  1 23  1  0
  1 24  1  0
  3 25  1  0
  3 26  1  0
  6 27  1  0
  7 28  1  0
  7 29  1  0
  9 30  1  0
 12 31  1  0
 14 32  1  0
 17 33  1  0
 17 34  1  0
 17 35  1  0
 19 36  1  0
 19 37  1  0
 19 38  1  0
 21 39  1  0
M  END
>  <meeko>  (133) 
{"is_sidechain": false}

>  <vina_energy>  (133) 
-6.59

$$$$

     RDKit          3D

 34 35  0  0  0  0  0  0  0  0999 V2000
    8.5560    8.1260   46.6840 C   0  0  0  0  0  0  0  0  0  0  0  0
    8.4880    6.7370   46.3560 O   0  0  0  0  0  0  0  0  0  0  0  0
    9.0410    6.4230   45.1490 C   0  0  0  0  0  0  0  0  0  0  0  0
    8.4500    6.4630   44.0790 O   0  0  0  0  0  0  0  0  0  0  0  0
   10.4750    5.9850   45.3540 C   0  0  0  0  0  0  0  0  0  0  0  0
   11.4770    6.7660   44.5600 C   0  0  0  0  0  0  0  0  0  0  0  0
   11.4930    8.1410   44.5320 C   0  0  0  0  0  0  0  0  0  0  0  0
   12.3930    8.8670   43.8420 N   0  0  0  0  0  0  0  0  0  0  0  0
   13.3200    8.1980   43.1400 C   0  0  0  0  0  0  0  0  0  0  0  0
   14.2940    8.8630   42.3930 N   0  0  0  0  0  0  0  0  0  0  0  0
   14.1930    9.8430   41.4750 C   0  0  0  0  0  0  0  0  0  0  0  0
   13.1850   10.0820   40.5180 C   0  0  0  0  0  0  0  0  0  0  0  0
   13.4350   11.1650   39.7770 N   0  0  0  0  0  0  0  0  0  0  0  0
   14.6090   11.6130   40.2580 N   0  0  0  0  0  0  0  0  0  0  0  0
   15.2000   12.7960   39.6750 C   0  0  0  0  0  0  0  0  0  0  0  0
   15.1100   10.8580   41.2910 C   0  0  0  0  0  0  0  0  0  0  0  0
   16.3870   11.1780   41.9740 C   0  0  0  0  0  0  0  0  0  0  0  0
   13.3870    6.8570   43.1010 N   0  0  0  0  0  0  0  0  0  0  0  0
   12.4630    6.1710   43.8040 C   0  0  0  0  0  0  0  0  0  0  0  0
    8.5618    8.2447   47.7776 H   0  0  0  0  0  0  0  0  0  0  0  0
    9.4763    8.5574   46.2635 H   0  0  0  0  0  0  0  0  0  0  0  0
    7.6822    8.6453   46.2635 H   0  0  0  0  0  0  0  0  0  0  0  0
   10.7197    6.0946   46.4208 H   0  0  0  0  0  0  0  0  0  0  0  0
   10.5394    4.9436   45.0058 H   0  0  0  0  0  0  0  0  0  0  0  0
   10.7253    8.6794   45.1072 H   0  0  0  0  0  0  0  0  0  0  0  0
   15.1880    8.4630   42.6460 H   0  0  0  0  0  0  0  0  0  0  0  0
   12.2941    9.4485   40.3957 H   0  0  0  0  0  0  0  0  0  0  0  0
   15.5369   13.4704   40.4761 H   0  0  0  0  0  0  0  0  0  0  0  0
   16.0599   12.5076   39.0526 H   0  0  0  0  0  0  0  0  0  0  0  0
   14.4530   13.3104   39.0526 H   0  0  0  0  0  0  0  0  0  0  0  0
   16.2394   11.1410   43.0634 H   0  0  0  0  0  0  0  0  0  0  0  0
   17.1527   10.4440   41.6826 H   0  0  0  0  0  0  0  0  0  0  0  0
   16.7160   12.1864   41.6826 H   0  0  0  0  0  0  0  0  0  0  0  0
   12.4987    5.0720   43.7719 H   0  0  0  0  0  0  0  0  0  0  0  0
  1  2  1  0
  2  3  1  0
  3  4  2  0
  3  5  1  0
  5  6  1  0
  6  7  2  0
  7  8  1  0
  8  9  2  0
  9 10  1  0
 10 11  1  0
 11 12  1  0
 12 13  2  0
 13 14  1  0
 14 15  1  0
 14 16  1  0
 16 17  1  0
  9 18  1  0
 18 19  2  0
 19  6  1  0
 16 11  2  0
  1 20  1  0
  1 21  1  0
  1 22  1  0
  5 23  1  0
  5 24  1  0
  7 25  1  0
 10 26  1  0
 12 27  1  0
 15 28  1  0
 15 29  1  0
 15 30  1  0
 17 31  1  0
 17 32  1  0
 17 33  1  0
 19 34  1  0
M  END
>  <meeko>  (134) 
{"is_sidechain": false}

>  <vina_energy>  (134) 
-6.96

$$$$

     RDKit          3D

 37 38  0  0  0  0  0  0  0  0999 V2000
    8.8100    7.7350   46.4850 C   0  0  0  0  0  0  0  0  0  0  0  0
    8.7050    6.6030   45.6210 O   0  0  0  0  0  0  0  0  0  0  0  0
    9.9040    6.0980   45.2180 C   0  0  0  0  0  0  0  0  0  0  0  0
   10.2460    4.9280   45.3160 O   0  0  0  0  0  0  0  0  0  0  0  0
   10.7530    7.2060   44.6470 C   0  0  0  0  0  0  0  0  0  0  0  0
   11.8490    6.6490   43.7400 C   0  0  0  0  0  0  0  0  0  0  0  0
   12.3940    7.6870   42.8100 C   0  0  0  0  0  0  0  0  0  0  0  0
   12.8000    7.4020   41.5240 C   0  0  0  0  0  0  0  0  0  0  0  0
   13.2780    8.3240   40.6650 N   0  0  0  0  0  0  0  0  0  0  0  0
   13.3670    9.5890   41.1060 C   0  0  0  0  0  0  0  0  0  0  0  0
   13.8680   10.5080   40.1840 N   0  0  0  0  0  0  0  0  0  0  0  0
   14.7760   11.4940   40.3170 C   0  0  0  0  0  0  0  0  0  0  0  0
   14.8480   12.7440   39.6710 C   0  0  0  0  0  0  0  0  0  0  0  0
   15.9030   13.4610   40.0700 N   0  0  0  0  0  0  0  0  0  0  0  0
   16.4990   12.6680   40.9790 N   0  0  0  0  0  0  0  0  0  0  0  0
   17.7010   13.1420   41.6260 C   0  0  0  0  0  0  0  0  0  0  0  0
   15.8700   11.4590   41.1580 C   0  0  0  0  0  0  0  0  0  0  0  0
   16.3690   10.4190   42.0920 C   0  0  0  0  0  0  0  0  0  0  0  0
   13.0000    9.9650   42.3420 N   0  0  0  0  0  0  0  0  0  0  0  0
   12.5230    9.0100   43.1640 C   0  0  0  0  0  0  0  0  0  0  0  0
    8.7790    7.4008   47.5326 H   0  0  0  0  0  0  0  0  0  0  0  0
    9.7602    8.2551   46.2940 H   0  0  0  0  0  0  0  0  0  0  0  0
    7.9716    8.4211   46.2940 H   0  0  0  0  0  0  0  0  0  0  0  0
   10.1133    7.8837   44.0626 H   0  0  0  0  0  0  0  0  0  0  0  0
   11.2293    7.7448   45.4793 H   0  0  0  0  0  0  0  0  0  0  0  0
   12.6691    6.2695   44.3672 H   0  0  0  0  0  0  0  0  0  0  0  0
   11.4077    5.8470   43.1301 H   0  0  0  0  0  0  0  0  0  0  0  0
   12.7297    6.3601   41.1782 H   0  0  0  0  0  0  0  0  0  0  0  0
   13.4210   10.3170   39.2980 H   0  0  0  0  0  0  0  0  0  0  0  0
   14.1191   13.0903   38.9235 H   0  0  0  0  0  0  0  0  0  0  0  0
   17.5740   13.0919   42.7175 H   0  0  0  0  0  0  0  0  0  0  0  0
   18.5515   12.5119   41.3265 H   0  0  0  0  0  0  0  0  0  0  0  0
   17.8925   14.1830   41.3265 H   0  0  0  0  0  0  0  0  0  0  0  0
   16.2100   10.7505   43.1287 H   0  0  0  0  0  0  0  0  0  0  0  0
   15.8237    9.4793   41.9197 H   0  0  0  0  0  0  0  0  0  0  0  0
   17.4432   10.2564   41.9197 H   0  0  0  0  0  0  0  0  0  0  0  0
   12.2185    9.3059   44.1788 H   0  0  0  0  0  0  0  0  0  0  0  0
  1  2  1  0
  2  3  1  0
  3  4  2  0
  3  5  1  0
  5  6  1  0
  6  7  1  0
  7  8  2  0
  8  9  1  0
  9 10  2  0
 10 11  1  0
 11 12  1  0
 12 13  1  0
 13 14  2  0
 14 15  1  0
 15 16  1  0
 15 17  1  0
 17 18  1  0
 10 19  1  0
 19 20  2  0
 20  7  1  0
 17 12  2  0
  1 21  1  0
  1 22  1  0
  1 23  1  0
  5 24  1  0
  5 25  1  0
  6 26  1  0
  6 27  1  0
  8 28  1  0
 11 29  1  0
 13 30  1  0
 16 31  1  0
 16 32  1  0
 16 33  1  0
 18 34  1  0
 18 35  1  0
 18 36  1  0
 20 37  1  0
M  END
>  <meeko>  (135) 
{"is_sidechain": false}

>  <vina_energy>  (135) 
-6.61

$$$$

     RDKit          3D

 40 41  0  0  0  0  0  0  0  0999 V2000
    8.7350    7.6860   46.6090 C   0  0  0  0  0  0  0  0  0  0  0  0
    9.9380    7.0310   46.2010 O   0  0  0  0  0  0  0  0  0  0  0  0
   10.3020    7.2940   44.9140 C   0  0  0  0  0  0  0  0  0  0  0  0
   10.2810    8.3970   44.3870 O   0  0  0  0  0  0  0  0  0  0  0  0
   10.6950    6.0080   44.2150 C   0  0  2  0  0  0  0  0  0  0  0  0
   10.1620    4.8100   45.0020 C   0  0  0  0  0  0  0  0  0  0  0  0
   12.2230    5.9950   44.0700 C   0  0  0  0  0  0  0  0  0  0  0  0
   12.7540    7.1060   43.2170 C   0  0  0  0  0  0  0  0  0  0  0  0
   12.4990    7.1940   41.8670 C   0  0  0  0  0  0  0  0  0  0  0  0
   12.9750    8.1760   41.0780 N   0  0  0  0  0  0  0  0  0  0  0  0
   13.7370    9.1180   41.6540 C   0  0  0  0  0  0  0  0  0  0  0  0
   14.2750   10.1750   40.9180 N   0  0  0  0  0  0  0  0  0  0  0  0
   15.3880   10.9080   41.1030 C   0  0  0  0  0  0  0  0  0  0  0  0
   16.5300   10.6340   41.8840 C   0  0  0  0  0  0  0  0  0  0  0  0
   17.4400   11.6110   41.8160 N   0  0  0  0  0  0  0  0  0  0  0  0
   16.8770   12.5090   40.9860 N   0  0  0  0  0  0  0  0  0  0  0  0
   17.5950   13.7230   40.6740 C   0  0  0  0  0  0  0  0  0  0  0  0
   15.6340   12.1400   40.5290 C   0  0  0  0  0  0  0  0  0  0  0  0
   14.8330   12.9850   39.6100 C   0  0  0  0  0  0  0  0  0  0  0  0
   14.0410    9.1200   42.9630 N   0  0  0  0  0  0  0  0  0  0  0  0
   13.5440    8.1170   43.7140 C   0  0  0  0  0  0  0  0  0  0  0  0
    8.6864    7.7125   47.7076 H   0  0  0  0  0  0  0  0  0  0  0  0
    8.7258    8.7136   46.2167 H   0  0  0  0  0  0  0  0  0  0  0  0
    7.8669    7.1360   46.2167 H   0  0  0  0  0  0  0  0  0  0  0  0
   10.2529    5.9433   43.2098 H   0  0  0  0  0  0  0  0  0  0  0  0
   10.2512    5.0104   46.0799 H   0  0  0  0  0  0  0  0  0  0  0  0
    9.1051    4.6440   44.7461 H   0  0  0  0  0  0  0  0  0  0  0  0
   10.7463    3.9139   44.7461 H   0  0  0  0  0  0  0  0  0  0  0  0
   12.6681    6.0828   45.0721 H   0  0  0  0  0  0  0  0  0  0  0  0
   12.4919    5.0507   43.5739 H   0  0  0  0  0  0  0  0  0  0  0  0
   11.8704    6.4177   41.4064 H   0  0  0  0  0  0  0  0  0  0  0  0
   13.6550   10.3390   40.1360 H   0  0  0  0  0  0  0  0  0  0  0  0
   16.6576    9.7194   42.4817 H   0  0  0  0  0  0  0  0  0  0  0  0
   17.8913   14.2239   41.6074 H   0  0  0  0  0  0  0  0  0  0  0  0
   18.4933   13.4775   40.0885 H   0  0  0  0  0  0  0  0  0  0  0  0
   16.9472   14.3920   40.0885 H   0  0  0  0  0  0  0  0  0  0  0  0
   14.1930   13.6602   40.1969 H   0  0  0  0  0  0  0  0  0  0  0  0
   15.5078   13.5786   38.9758 H   0  0  0  0  0  0  0  0  0  0  0  0
   14.2042   12.3428   38.9758 H   0  0  0  0  0  0  0  0  0  0  0  0
   13.7841    8.1061   44.7874 H   0  0  0  0  0  0  0  0  0  0  0  0
  1  2  1  0
  2  3  1  0
  3  4  2  0
  3  5  1  0
  5  6  1  0
  5  7  1  0
  7  8  1  0
  8  9  2  0
  9 10  1  0
 10 11  2  0
 11 12  1  0
 12 13  1  0
 13 14  1  0
 14 15  2  0
 15 16  1  0
 16 17  1  0
 16 18  1  0
 18 19  1  0
 11 20  1  0
 20 21  2  0
 21  8  1  0
 18 13  2  0
  1 22  1  0
  1 23  1  0
  1 24  1  0
  5 25  1  6
  6 26  1  0
  6 27  1  0
  6 28  1  0
  7 29  1  0
  7 30  1  0
  9 31  1  0
 12 32  1  0
 14 33  1  0
 17 34  1  0
 17 35  1  0
 17 36  1  0
 19 37  1  0
 19 38  1  0
 19 39  1  0
 21 40  1  0
M  END
>  <meeko>  (136) 
{"is_sidechain": false}

>  <vina_energy>  (136) 
-6.88

$$$$

     RDKit          3D

 40 41  0  0  0  0  0  0  0  0999 V2000
   10.1760    5.9830   45.2610 C   0  0  0  0  0  0  0  0  0  0  0  0
   11.2470    6.1440   44.3290 O   0  0  0  0  0  0  0  0  0  0  0  0
   11.4410    7.4280   43.9190 C   0  0  0  0  0  0  0  0  0  0  0  0
   10.7780    8.3900   44.2800 O   0  0  0  0  0  0  0  0  0  0  0  0
   12.5920    7.4770   42.9430 C   0  0  0  0  0  0  0  0  0  0  0  0
   13.3510    8.8070   42.9630 C   0  0  0  0  0  0  0  0  0  0  0  0
   13.6430    9.4110   41.5800 C   0  0  0  0  0  0  0  0  0  0  0  0
   14.8650   10.2730   41.5370 C   0  0  0  0  0  0  0  0  0  0  0  0
   14.9740   11.3630   40.7050 C   0  0  0  0  0  0  0  0  0  0  0  0
   16.0560   12.1660   40.6590 N   0  0  0  0  0  0  0  0  0  0  0  0
   17.0820   11.8680   41.4700 C   0  0  0  0  0  0  0  0  0  0  0  0
   18.2430   12.6400   41.4940 N   0  0  0  0  0  0  0  0  0  0  0  0
   18.4190   13.9740   41.5490 C   0  0  0  0  0  0  0  0  0  0  0  0
   18.5210   14.8250   42.6680 C   0  0  0  0  0  0  0  0  0  0  0  0
   18.6960   16.1040   42.3210 N   0  0  0  0  0  0  0  0  0  0  0  0
   18.7090   16.0670   40.9760 N   0  0  0  0  0  0  0  0  0  0  0  0
   18.8820   17.2990   40.2420 C   0  0  0  0  0  0  0  0  0  0  0  0
   18.5400   14.8050   40.4540 C   0  0  0  0  0  0  0  0  0  0  0  0
   18.5140   14.5390   38.9950 C   0  0  0  0  0  0  0  0  0  0  0  0
   17.0740   10.8210   42.3140 N   0  0  0  0  0  0  0  0  0  0  0  0
   15.9700   10.0470   42.3260 C   0  0  0  0  0  0  0  0  0  0  0  0
   10.5701    6.0422   46.2863 H   0  0  0  0  0  0  0  0  0  0  0  0
    9.4332    6.7796   45.1071 H   0  0  0  0  0  0  0  0  0  0  0  0
    9.7002    5.0032   45.1071 H   0  0  0  0  0  0  0  0  0  0  0  0
   13.2962    6.6700   43.1937 H   0  0  0  0  0  0  0  0  0  0  0  0
   12.1677    7.3607   41.9348 H   0  0  0  0  0  0  0  0  0  0  0  0
   12.7520    9.5329   43.5325 H   0  0  0  0  0  0  0  0  0  0  0  0
   14.3298    8.5948   43.4179 H   0  0  0  0  0  0  0  0  0  0  0  0
   13.7760    8.5867   40.8639 H   0  0  0  0  0  0  0  0  0  0  0  0
   12.7891   10.0574   41.3288 H   0  0  0  0  0  0  0  0  0  0  0  0
   14.1295   11.5928   40.0387 H   0  0  0  0  0  0  0  0  0  0  0  0
   19.0270   12.0030   41.4620 H   0  0  0  0  0  0  0  0  0  0  0  0
   18.4631   14.4759   43.7095 H   0  0  0  0  0  0  0  0  0  0  0  0
   18.9992   18.1336   40.9489 H   0  0  0  0  0  0  0  0  0  0  0  0
   19.7787   17.2259   39.6091 H   0  0  0  0  0  0  0  0  0  0  0  0
   17.9999   17.4757   39.6091 H   0  0  0  0  0  0  0  0  0  0  0  0
   18.4083   13.4580   38.8212 H   0  0  0  0  0  0  0  0  0  0  0  0
   17.6633   15.0683   38.5409 H   0  0  0  0  0  0  0  0  0  0  0  0
   19.4511   14.8935   38.5409 H   0  0  0  0  0  0  0  0  0  0  0  0
   15.9513    9.1834   43.0070 H   0  0  0  0  0  0  0  0  0  0  0  0
  1  2  1  0
  2  3  1  0
  3  4  2  0
  3  5  1  0
  5  6  1  0
  6  7  1  0
  7  8  1  0
  8  9  2  0
  9 10  1  0
 10 11  2  0
 11 12  1  0
 12 13  1  0
 13 14  1  0
 14 15  2  0
 15 16  1  0
 16 17  1  0
 16 18  1  0
 18 19  1  0
 11 20  1  0
 20 21  2  0
 21  8  1  0
 18 13  2  0
  1 22  1  0
  1 23  1  0
  1 24  1  0
  5 25  1  0
  5 26  1  0
  6 27  1  0
  6 28  1  0
  7 29  1  0
  7 30  1  0
  9 31  1  0
 12 32  1  0
 14 33  1  0
 17 34  1  0
 17 35  1  0
 17 36  1  0
 19 37  1  0
 19 38  1  0
 19 39  1  0
 21 40  1  0
M  END
>  <meeko>  (137) 
{"is_sidechain": false}

>  <vina_energy>  (137) 
-6.38

$$$$

     RDKit          3D

 40 41  0  0  0  0  0  0  0  0999 V2000
    8.6250    8.0430   46.7430 C   0  0  0  0  0  0  0  0  0  0  0  0
    8.6020    6.8120   46.0080 O   0  0  0  0  0  0  0  0  0  0  0  0
    9.8120    6.3980   45.5700 C   0  0  0  0  0  0  0  0  0  0  0  0
   10.4270    5.4060   45.9430 O   0  0  0  0  0  0  0  0  0  0  0  0
   10.3650    7.3130   44.4810 C   0  0  2  0  0  0  0  0  0  0  0  0
    9.3670    7.3950   43.3350 N   0  0  0  0  0  0  0  0  0  0  0  0
   11.7190    6.7910   43.9670 C   0  0  0  0  0  0  0  0  0  0  0  0
   12.3880    7.7310   43.0120 C   0  0  0  0  0  0  0  0  0  0  0  0
   12.7660    7.3570   41.7420 C   0  0  0  0  0  0  0  0  0  0  0  0
   13.2680    8.2110   40.8330 N   0  0  0  0  0  0  0  0  0  0  0  0
   13.4490    9.4880   41.2060 C   0  0  0  0  0  0  0  0  0  0  0  0
   13.9650   10.3390   40.2320 N   0  0  0  0  0  0  0  0  0  0  0  0
   14.8380   11.3620   40.3250 C   0  0  0  0  0  0  0  0  0  0  0  0
   14.8730   12.5840   39.6220 C   0  0  0  0  0  0  0  0  0  0  0  0
   15.9070   13.3470   39.9800 N   0  0  0  0  0  0  0  0  0  0  0  0
   16.5220   12.6230   40.9340 N   0  0  0  0  0  0  0  0  0  0  0  0
   17.6990   13.1640   41.5760 C   0  0  0  0  0  0  0  0  0  0  0  0
   15.9260   11.4060   41.1720 C   0  0  0  0  0  0  0  0  0  0  0  0
   16.4520   10.4420   42.1710 C   0  0  0  0  0  0  0  0  0  0  0  0
   13.1310    9.9310   42.4310 N   0  0  0  0  0  0  0  0  0  0  0  0
   12.6410    9.0500   43.3170 C   0  0  0  0  0  0  0  0  0  0  0  0
    8.6210    7.8263   47.8214 H   0  0  0  0  0  0  0  0  0  0  0  0
    9.5338    8.6068   46.4857 H   0  0  0  0  0  0  0  0  0  0  0  0
    7.7379    8.6403   46.4857 H   0  0  0  0  0  0  0  0  0  0  0  0
   10.5222    8.3161   44.9042 H   0  0  0  0  0  0  0  0  0  0  0  0
    8.9060    8.3180   43.3110 H   0  0  0  0  0  0  0  0  0  0  0  0
    9.8680    7.3290   42.4360 H   0  0  0  0  0  0  0  0  0  0  0  0
    8.6480    6.6590   43.3550 H   0  0  0  0  0  0  0  0  0  0  0  0
   12.3843    6.6359   44.8291 H   0  0  0  0  0  0  0  0  0  0  0  0
   11.5240    5.8551   43.4229 H   0  0  0  0  0  0  0  0  0  0  0  0
   12.6509    6.3013   41.4553 H   0  0  0  0  0  0  0  0  0  0  0  0
   13.5950   10.0540   39.3340 H   0  0  0  0  0  0  0  0  0  0  0  0
   14.1312   12.8752   38.8638 H   0  0  0  0  0  0  0  0  0  0  0  0
   17.5791   13.1089   42.6681 H   0  0  0  0  0  0  0  0  0  0  0  0
   18.5818   12.5813   41.2742 H   0  0  0  0  0  0  0  0  0  0  0  0
   17.8316   14.2134   41.2742 H   0  0  0  0  0  0  0  0  0  0  0  0
   16.2476   10.8165   43.1849 H   0  0  0  0  0  0  0  0  0  0  0  0
   15.9606    9.4674   42.0342 H   0  0  0  0  0  0  0  0  0  0  0  0
   17.5375   10.3278   42.0342 H   0  0  0  0  0  0  0  0  0  0  0  0
   12.4308    9.3992   44.3387 H   0  0  0  0  0  0  0  0  0  0  0  0
  1  2  1  0
  2  3  1  0
  3  4  2  0
  3  5  1  0
  5  6  1  0
  5  7  1  0
  7  8  1  0
  8  9  2  0
  9 10  1  0
 10 11  2  0
 11 12  1  0
 12 13  1  0
 13 14  1  0
 14 15  2  0
 15 16  1  0
 16 17  1  0
 16 18  1  0
 18 19  1  0
 11 20  1  0
 20 21  2  0
 21  8  1  0
 18 13  2  0
  1 22  1  0
  1 23  1  0
  1 24  1  0
  5 25  1  1
  6 26  1  0
  6 27  1  0
  6 28  1  0
  7 29  1  0
  7 30  1  0
  9 31  1  0
 12 32  1  0
 14 33  1  0
 17 34  1  0
 17 35  1  0
 17 36  1  0
 19 37  1  0
 19 38  1  0
 19 39  1  0
 21 40  1  0
M  CHG  1   6   1
M  END
>  <meeko>  (138) 
{"is_sidechain": false}

>  <vina_energy>  (138) 
-6.74

$$$$

     RDKit          3D

 36 37  0  0  0  0  0  0  0  0999 V2000
   12.0090    5.8840   43.7400 C   0  0  0  0  0  0  0  0  0  0  0  0
   13.2030    6.6560   43.5930 O   0  0  0  0  0  0  0  0  0  0  0  0
   12.9810    7.9500   43.2640 C   0  0  0  0  0  0  0  0  0  0  0  0
   12.2050    8.7070   43.8260 O   0  0  0  0  0  0  0  0  0  0  0  0
   13.7530    8.2750   42.1910 N   0  0  0  0  0  0  0  0  0  0  0  0
   13.5830    9.5270   41.5030 C   0  0  0  0  0  0  0  0  0  0  0  0
   14.8340   10.3350   41.5220 C   0  0  0  0  0  0  0  0  0  0  0  0
   15.9360    9.9900   42.2690 C   0  0  0  0  0  0  0  0  0  0  0  0
   17.0700   10.7160   42.3110 N   0  0  0  0  0  0  0  0  0  0  0  0
   17.1140   11.8400   41.5760 C   0  0  0  0  0  0  0  0  0  0  0  0
   18.2440   12.6560   41.5540 N   0  0  0  0  0  0  0  0  0  0  0  0
   18.3770   13.9910   41.6790 C   0  0  0  0  0  0  0  0  0  0  0  0
   18.2880   14.8030   42.8270 C   0  0  0  0  0  0  0  0  0  0  0  0
   18.4790   16.0970   42.5520 N   0  0  0  0  0  0  0  0  0  0  0  0
   18.6980   16.1080   41.2240 N   0  0  0  0  0  0  0  0  0  0  0  0
   18.9510   17.3680   40.5650 C   0  0  0  0  0  0  0  0  0  0  0  0
   18.6400   14.8640   40.6420 C   0  0  0  0  0  0  0  0  0  0  0  0
   18.8430   14.6480   39.1880 C   0  0  0  0  0  0  0  0  0  0  0  0
   16.0880   12.2620   40.8180 N   0  0  0  0  0  0  0  0  0  0  0  0
   14.9720   11.5040   40.8090 C   0  0  0  0  0  0  0  0  0  0  0  0
   11.7923    5.7439   44.8093 H   0  0  0  0  0  0  0  0  0  0  0  0
   11.1703    6.4112   43.2619 H   0  0  0  0  0  0  0  0  0  0  0  0
   12.1456    4.9028   43.2619 H   0  0  0  0  0  0  0  0  0  0  0  0
   14.2120    7.4950   41.7400 H   0  0  0  0  0  0  0  0  0  0  0  0
   13.3035    9.3256   40.4583 H   0  0  0  0  0  0  0  0  0  0  0  0
   12.7955   10.0984   42.0161 H   0  0  0  0  0  0  0  0  0  0  0  0
   15.8887    9.0678   42.8668 H   0  0  0  0  0  0  0  0  0  0  0  0
   19.0460   12.0550   41.4210 H   0  0  0  0  0  0  0  0  0  0  0  0
   18.0842   14.4156   43.8361 H   0  0  0  0  0  0  0  0  0  0  0  0
   19.1084   18.1518   41.3205 H   0  0  0  0  0  0  0  0  0  0  0  0
   19.8492   17.2791   39.9363 H   0  0  0  0  0  0  0  0  0  0  0  0
   18.0881   17.6327   39.9363 H   0  0  0  0  0  0  0  0  0  0  0  0
   19.5891   13.8541   39.0359 H   0  0  0  0  0  0  0  0  0  0  0  0
   17.8907   14.3498   38.7251 H   0  0  0  0  0  0  0  0  0  0  0  0
   19.1997   15.5800   38.7251 H   0  0  0  0  0  0  0  0  0  0  0  0
   14.1227   11.8400   40.1959 H   0  0  0  0  0  0  0  0  0  0  0  0
  1  2  1  0
  2  3  1  0
  3  4  2  0
  3  5  1  0
  5  6  1  0
  6  7  1  0
  7  8  2  0
  8  9  1  0
  9 10  2  0
 10 11  1  0
 11 12  1  0
 12 13  1  0
 13 14  2  0
 14 15  1  0
 15 16  1  0
 15 17  1  0
 17 18  1  0
 10 19  1  0
 19 20  2  0
 20  7  1  0
 17 12  2  0
  1 21  1  0
  1 22  1  0
  1 23  1  0
  5 24  1  0
  6 25  1  0
  6 26  1  0
  8 27  1  0
 11 28  1  0
 13 29  1  0
 16 30  1  0
 16 31  1  0
 16 32  1  0
 18 33  1  0
 18 34  1  0
 18 35  1  0
 20 36  1  0
M  END
>  <meeko>  (139) 
{"is_sidechain": false}

>  <vina_energy>  (139) 
-6.65

$$$$

     RDKit          3D

 32 33  0  0  0  0  0  0  0  0999 V2000
    8.6070    4.3860   44.5170 C   0  0  0  0  0  0  0  0  0  0  0  0
   10.2570    4.6970   45.1890 S   0  0  0  0  0  0  0  0  0  0  0  0
   10.1860    6.5120   45.2580 C   0  0  0  0  0  0  0  0  0  0  0  0
   11.2890    7.1370   44.4690 C   0  0  0  0  0  0  0  0  0  0  0  0
   12.1240    6.4120   43.6500 C   0  0  0  0  0  0  0  0  0  0  0  0
   13.1310    6.9530   42.9370 N   0  0  0  0  0  0  0  0  0  0  0  0
   13.3090    8.2800   43.0270 C   0  0  0  0  0  0  0  0  0  0  0  0
   14.3250    8.9310   42.3270 N   0  0  0  0  0  0  0  0  0  0  0  0
   14.2800    9.9190   41.4120 C   0  0  0  0  0  0  0  0  0  0  0  0
   13.3040   10.1970   40.4330 C   0  0  0  0  0  0  0  0  0  0  0  0
   13.6100   11.2720   39.7010 N   0  0  0  0  0  0  0  0  0  0  0  0
   14.7800   11.6850   40.2210 N   0  0  0  0  0  0  0  0  0  0  0  0
   15.4200   12.8540   39.6650 C   0  0  0  0  0  0  0  0  0  0  0  0
   15.2380   10.8990   41.2520 C   0  0  0  0  0  0  0  0  0  0  0  0
   16.5120   11.1690   41.9620 C   0  0  0  0  0  0  0  0  0  0  0  0
   12.5390    9.0770   43.7880 N   0  0  0  0  0  0  0  0  0  0  0  0
   11.5440    8.4900   44.4850 C   0  0  0  0  0  0  0  0  0  0  0  0
    7.8938    4.2516   45.3436 H   0  0  0  0  0  0  0  0  0  0  0  0
    8.2955    5.2412   43.8993 H   0  0  0  0  0  0  0  0  0  0  0  0
    8.6282    3.4760   43.8993 H   0  0  0  0  0  0  0  0  0  0  0  0
    9.2211    6.8470   44.8496 H   0  0  0  0  0  0  0  0  0  0  0  0
   10.2974    6.8204   46.3080 H   0  0  0  0  0  0  0  0  0  0  0  0
   11.9596    5.3271   43.5729 H   0  0  0  0  0  0  0  0  0  0  0  0
   15.2030    8.5310   42.6320 H   0  0  0  0  0  0  0  0  0  0  0  0
   12.3937    9.5967   40.2883 H   0  0  0  0  0  0  0  0  0  0  0  0
   15.7743   13.5011   40.4810 H   0  0  0  0  0  0  0  0  0  0  0  0
   16.2744   12.5444   39.0453 H   0  0  0  0  0  0  0  0  0  0  0  0
   14.6988   13.4070   39.0453 H   0  0  0  0  0  0  0  0  0  0  0  0
   16.3413   11.1328   43.0481 H   0  0  0  0  0  0  0  0  0  0  0  0
   17.2560   10.4086   41.6822 H   0  0  0  0  0  0  0  0  0  0  0  0
   16.8835   12.1658   41.6822 H   0  0  0  0  0  0  0  0  0  0  0  0
   10.8978    9.1307   45.1030 H   0  0  0  0  0  0  0  0  0  0  0  0
  1  2  1  0
  2  3  1  0
  3  4  1  0
  4  5  2  0
  5  6  1  0
  6  7  2  0
  7  8  1  0
  8  9  1  0
  9 10  1  0
 10 11  2  0
 11 12  1  0
 12 13  1  0
 12 14  1  0
 14 15  1  0
  7 16  1  0
 16 17  2  0
 17  4  1  0
 14  9  2  0
  1 18  1  0
  1 19  1  0
  1 20  1  0
  3 21  1  0
  3 22  1  0
  5 23  1  0
  8 24  1  0
 10 25  1  0
 13 26  1  0
 13 27  1  0
 13 28  1  0
 15 29  1  0
 15 30  1  0
 15 31  1  0
 17 32  1  0
M  END
>  <meeko>  (140) 
{"is_sidechain": false}

>  <vina_energy>  (140) 
-5.96

$$$$

     RDKit          3D

 34 35  0  0  0  0  0  0  0  0999 V2000
   14.6810   12.6020   39.9970 C   0  0  0  0  0  0  0  0  0  0  0  0
   15.4180   11.7370   40.9510 C   0  0  0  0  0  0  0  0  0  0  0  0
   15.0920   10.5390   41.5550 C   0  0  0  0  0  0  0  0  0  0  0  0
   13.9360    9.8690   41.3770 N   0  0  0  0  0  0  0  0  0  0  0  0
   13.2590    8.9720   42.2010 C   0  0  0  0  0  0  0  0  0  0  0  0
   12.8880    9.3020   43.4470 N   0  0  0  0  0  0  0  0  0  0  0  0
   12.2400    8.3720   44.1720 C   0  0  0  0  0  0  0  0  0  0  0  0
   11.9550    7.1060   43.7140 C   0  0  0  0  0  0  0  0  0  0  0  0
   11.2510    6.0960   44.5560 C   0  0  0  0  0  0  0  0  0  0  0  0
    9.5010    6.4580   44.6670 S   0  0  0  0  0  0  0  0  0  0  0  0
    9.3260    7.4900   46.1060 C   0  0  0  0  0  0  0  0  0  0  0  0
    9.1680    7.2750   43.5140 O   0  0  0  0  0  0  0  0  0  0  0  0
    8.7870    5.2190   44.9110 O   0  0  0  0  0  0  0  0  0  0  0  0
   12.3690    6.8620   42.4240 C   0  0  0  0  0  0  0  0  0  0  0  0
   13.0130    7.7680   41.6620 N   0  0  0  0  0  0  0  0  0  0  0  0
   16.2070   10.2170   42.3540 C   0  0  0  0  0  0  0  0  0  0  0  0
   17.1740   11.1350   42.2710 N   0  0  0  0  0  0  0  0  0  0  0  0
   16.6710   12.0490   41.4210 N   0  0  0  0  0  0  0  0  0  0  0  0
   17.4620   13.2120   41.0930 C   0  0  0  0  0  0  0  0  0  0  0  0
   14.0664   13.3233   40.5556 H   0  0  0  0  0  0  0  0  0  0  0  0
   15.3987   13.1445   39.3641 H   0  0  0  0  0  0  0  0  0  0  0  0
   14.0314   11.9795   39.3641 H   0  0  0  0  0  0  0  0  0  0  0  0
   13.3930    9.9680   40.5290 H   0  0  0  0  0  0  0  0  0  0  0  0
   11.9195    8.6391   45.1898 H   0  0  0  0  0  0  0  0  0  0  0  0
   11.3843    5.0997   44.1091 H   0  0  0  0  0  0  0  0  0  0  0  0
   11.6792    6.1254   45.5688 H   0  0  0  0  0  0  0  0  0  0  0  0
    9.4302    6.8758   47.0126 H   0  0  0  0  0  0  0  0  0  0  0  0
   10.1053    8.2663   46.0975 H   0  0  0  0  0  0  0  0  0  0  0  0
    8.3343    7.9659   46.0975 H   0  0  0  0  0  0  0  0  0  0  0  0
   12.1626    5.8721   41.9909 H   0  0  0  0  0  0  0  0  0  0  0  0
   16.2737    9.3121   42.9758 H   0  0  0  0  0  0  0  0  0  0  0  0
   17.7953   13.7020   42.0197 H   0  0  0  0  0  0  0  0  0  0  0  0
   18.3392   12.9048   40.5047 H   0  0  0  0  0  0  0  0  0  0  0  0
   16.8539   13.9150   40.5047 H   0  0  0  0  0  0  0  0  0  0  0  0
  1  2  1  0
  2  3  2  0
  3  4  1  0
  4  5  1  0
  5  6  2  0
  6  7  1  0
  7  8  2  0
  8  9  1  0
  9 10  1  0
 10 11  1  0
 10 12  2  0
 10 13  2  0
  8 14  1  0
 14 15  2  0
  3 16  1  0
 16 17  2  0
 17 18  1  0
 18 19  1  0
 18  2  1  0
 15  5  1  0
  1 20  1  0
  1 21  1  0
  1 22  1  0
  4 23  1  0
  7 24  1  0
  9 25  1  0
  9 26  1  0
 11 27  1  0
 11 28  1  0
 11 29  1  0
 14 30  1  0
 16 31  1  0
 19 32  1  0
 19 33  1  0
 19 34  1  0
M  END
>  <meeko>  (141) 
{"is_sidechain": false}

>  <vina_energy>  (141) 
-6.79

$$$$

     RDKit          3D

 36 37  0  0  0  0  0  0  0  0999 V2000
   15.2490   13.4220   39.3790 C   0  0  0  0  0  0  0  0  0  0  0  0
   15.9520   12.5430   40.3440 C   0  0  0  0  0  0  0  0  0  0  0  0
   15.6400   11.3010   40.8630 C   0  0  0  0  0  0  0  0  0  0  0  0
   14.5340   10.5920   40.5630 N   0  0  0  0  0  0  0  0  0  0  0  0
   13.8820    9.5730   41.2590 C   0  0  0  0  0  0  0  0  0  0  0  0
   13.9430    9.6630   42.5990 N   0  0  0  0  0  0  0  0  0  0  0  0
   13.3270    8.6990   43.3110 C   0  0  0  0  0  0  0  0  0  0  0  0
   12.6550    7.6360   42.7500 C   0  0  0  0  0  0  0  0  0  0  0  0
   11.9600    6.5920   43.5590 C   0  0  0  0  0  0  0  0  0  0  0  0
   10.6020    6.9950   43.9160 N   0  0  0  0  0  0  0  0  0  0  0  0
    9.8280    6.2160   45.1780 S   0  0  0  0  0  0  0  0  0  0  0  0
   10.7920    4.7300   45.3650 C   0  0  0  0  0  0  0  0  0  0  0  0
    8.5270    5.8390   44.6740 O   0  0  0  0  0  0  0  0  0  0  0  0
    9.9900    7.0220   46.3650 O   0  0  0  0  0  0  0  0  0  0  0  0
   12.6420    7.6400   41.3730 C   0  0  0  0  0  0  0  0  0  0  0  0
   13.2420    8.5830   40.6190 N   0  0  0  0  0  0  0  0  0  0  0  0
   16.7070   10.9860   41.7280 C   0  0  0  0  0  0  0  0  0  0  0  0
   17.6310   11.9510   41.7660 N   0  0  0  0  0  0  0  0  0  0  0  0
   17.1510   12.8840   40.9250 N   0  0  0  0  0  0  0  0  0  0  0  0
   17.9080   14.0960   40.7140 C   0  0  0  0  0  0  0  0  0  0  0  0
   14.6535   14.1666   39.9277 H   0  0  0  0  0  0  0  0  0  0  0  0
   15.9874   13.9368   38.7467 H   0  0  0  0  0  0  0  0  0  0  0  0
   14.5845   12.8148   38.7467 H   0  0  0  0  0  0  0  0  0  0  0  0
   14.0180   10.7530   39.7090 H   0  0  0  0  0  0  0  0  0  0  0  0
   13.3632    8.7653   44.4084 H   0  0  0  0  0  0  0  0  0  0  0  0
   11.9128    5.6616   42.9741 H   0  0  0  0  0  0  0  0  0  0  0  0
   12.5285    6.4467   44.4894 H   0  0  0  0  0  0  0  0  0  0  0  0
    9.9800    7.3030   43.1690 H   0  0  0  0  0  0  0  0  0  0  0  0
   10.9312    4.5154   46.4349 H   0  0  0  0  0  0  0  0  0  0  0  0
   10.2666    3.8896   44.8878 H   0  0  0  0  0  0  0  0  0  0  0  0
   11.7736    4.8672   44.8878 H   0  0  0  0  0  0  0  0  0  0  0  0
   12.1109    6.8260   40.8580 H   0  0  0  0  0  0  0  0  0  0  0  0
   16.7720   10.0524   42.3060 H   0  0  0  0  0  0  0  0  0  0  0  0
   18.1804   14.5321   41.6864 H   0  0  0  0  0  0  0  0  0  0  0  0
   18.8218   13.8636   40.1475 H   0  0  0  0  0  0  0  0  0  0  0  0
   17.2983   14.8152   40.1475 H   0  0  0  0  0  0  0  0  0  0  0  0
  1  2  1  0
  2  3  2  0
  3  4  1  0
  4  5  1  0
  5  6  2  0
  6  7  1  0
  7  8  2  0
  8  9  1  0
  9 10  1  0
 10 11  1  0
 11 12  1  0
 11 13  2  0
 11 14  2  0
  8 15  1  0
 15 16  2  0
  3 17  1  0
 17 18  2  0
 18 19  1  0
 19 20  1  0
 19  2  1  0
 16  5  1  0
  1 21  1  0
  1 22  1  0
  1 23  1  0
  4 24  1  0
  7 25  1  0
  9 26  1  0
  9 27  1  0
 10 28  1  0
 12 29  1  0
 12 30  1  0
 12 31  1  0
 15 32  1  0
 17 33  1  0
 20 34  1  0
 20 35  1  0
 20 36  1  0
M  END
>  <meeko>  (142) 
{"is_sidechain": false}

>  <vina_energy>  (142) 
-6.76

$$$$

     RDKit          3D

 39 40  0  0  0  0  0  0  0  0999 V2000
   11.8990    4.9350   43.7730 C   0  0  0  0  0  0  0  0  0  0  0  0
   11.3810    6.2620   44.1860 C   0  0  0  0  0  0  0  0  0  0  0  0
   11.8840    7.5390   44.0370 C   0  0  0  0  0  0  0  0  0  0  0  0
   13.0480    7.8480   43.4340 N   0  0  0  0  0  0  0  0  0  0  0  0
   13.3610    8.8160   42.4800 C   0  0  0  0  0  0  0  0  0  0  0  0
   14.6140    9.2920   42.5370 N   0  0  0  0  0  0  0  0  0  0  0  0
   14.9690   10.2350   41.6370 C   0  0  0  0  0  0  0  0  0  0  0  0
   14.1240   10.7260   40.6670 C   0  0  0  0  0  0  0  0  0  0  0  0
   14.4640   11.7630   39.6370 C   0  0  0  0  0  0  0  0  0  0  0  0
   15.0760   13.0830   40.1200 C   0  0  0  0  0  0  0  0  0  0  0  0
   16.5410   13.0240   40.0550 N   0  0  0  0  0  0  0  0  0  0  0  0
   17.4310   13.0020   41.4740 S   0  0  0  0  0  0  0  0  0  0  0  0
   18.5930   14.3280   41.2210 C   0  0  0  0  0  0  0  0  0  0  0  0
   18.1560   11.7530   41.5180 O   0  0  0  0  0  0  0  0  0  0  0  0
   16.5180   13.4000   42.5210 O   0  0  0  0  0  0  0  0  0  0  0  0
   12.8610   10.1690   40.6970 C   0  0  0  0  0  0  0  0  0  0  0  0
   12.4630    9.2300   41.5760 N   0  0  0  0  0  0  0  0  0  0  0  0
   10.9280    8.3820   44.6380 C   0  0  0  0  0  0  0  0  0  0  0  0
    9.8920    7.7030   45.1360 N   0  0  0  0  0  0  0  0  0  0  0  0
   10.1900    6.4210   44.8550 N   0  0  0  0  0  0  0  0  0  0  0  0
    9.2720    5.3810   45.2570 C   0  0  0  0  0  0  0  0  0  0  0  0
   12.1321    4.3379   44.6670 H   0  0  0  0  0  0  0  0  0  0  0  0
   11.1379    4.4149   43.1729 H   0  0  0  0  0  0  0  0  0  0  0  0
   12.8112    5.0680   43.1729 H   0  0  0  0  0  0  0  0  0  0  0  0
   13.9050    7.3530   43.6470 H   0  0  0  0  0  0  0  0  0  0  0  0
   15.9931   10.6339   41.6817 H   0  0  0  0  0  0  0  0  0  0  0  0
   15.1801   11.3069   38.9376 H   0  0  0  0  0  0  0  0  0  0  0  0
   13.4937   12.0512   39.2063 H   0  0  0  0  0  0  0  0  0  0  0  0
   14.7180   13.9034   39.4807 H   0  0  0  0  0  0  0  0  0  0  0  0
   14.7726   13.2553   41.1632 H   0  0  0  0  0  0  0  0  0  0  0  0
   16.9740   12.5010   39.2920 H   0  0  0  0  0  0  0  0  0  0  0  0
   18.9293   14.7118   42.1955 H   0  0  0  0  0  0  0  0  0  0  0  0
   19.4591   13.9536   40.6556 H   0  0  0  0  0  0  0  0  0  0  0  0
   18.1082   15.1375   40.6556 H   0  0  0  0  0  0  0  0  0  0  0  0
   12.1300   10.5161   39.9519 H   0  0  0  0  0  0  0  0  0  0  0  0
   11.0245    9.4765   44.6909 H   0  0  0  0  0  0  0  0  0  0  0  0
    9.2300    5.3334   46.3552 H   0  0  0  0  0  0  0  0  0  0  0  0
    8.2701    5.6031   44.8610 H   0  0  0  0  0  0  0  0  0  0  0  0
    9.6168    4.4144   44.8610 H   0  0  0  0  0  0  0  0  0  0  0  0
  1  2  1  0
  2  3  2  0
  3  4  1  0
  4  5  1  0
  5  6  2  0
  6  7  1  0
  7  8  2  0
  8  9  1  0
  9 10  1  0
 10 11  1  0
 11 12  1  0
 12 13  1  0
 12 14  2  0
 12 15  2  0
  8 16  1  0
 16 17  2  0
  3 18  1  0
 18 19  2  0
 19 20  1  0
 20 21  1  0
 20  2  1  0
 17  5  1  0
  1 22  1  0
  1 23  1  0
  1 24  1  0
  4 25  1  0
  7 26  1  0
  9 27  1  0
  9 28  1  0
 10 29  1  0
 10 30  1  0
 11 31  1  0
 13 32  1  0
 13 33  1  0
 13 34  1  0
 16 35  1  0
 18 36  1  0
 21 37  1  0
 21 38  1  0
 21 39  1  0
M  END
>  <meeko>  (143) 
{"is_sidechain": false}

>  <vina_energy>  (143) 
-6.42

$$$$

     RDKit          3D

 31 32  0  0  0  0  0  0  0  0999 V2000
   16.5970   11.1330   42.0750 C   0  0  0  0  0  0  0  0  0  0  0  0
   15.3390   10.9160   41.3200 C   0  0  0  0  0  0  0  0  0  0  0  0
   14.3270    9.9870   41.4560 C   0  0  0  0  0  0  0  0  0  0  0  0
   14.2900    9.0110   42.3840 N   0  0  0  0  0  0  0  0  0  0  0  0
   13.2150    8.3790   43.0090 C   0  0  0  0  0  0  0  0  0  0  0  0
   12.3040    9.0690   43.7130 N   0  0  0  0  0  0  0  0  0  0  0  0
   11.2990    8.3770   44.2800 C   0  0  0  0  0  0  0  0  0  0  0  0
   11.1540    7.0130   44.1690 C   0  0  0  0  0  0  0  0  0  0  0  0
   10.0360    6.2620   44.8220 C   0  0  0  0  0  0  0  0  0  0  0  0
   10.3840    4.8150   45.1220 C   0  0  0  0  0  0  0  0  0  0  0  0
   11.1160    4.2650   44.1300 F   0  0  0  0  0  0  0  0  0  0  0  0
   11.0760    4.6980   46.2760 F   0  0  0  0  0  0  0  0  0  0  0  0
    9.2550    4.0800   45.2490 F   0  0  0  0  0  0  0  0  0  0  0  0
   12.1410    6.3910   43.4370 C   0  0  0  0  0  0  0  0  0  0  0  0
   13.1640    7.0450   42.8530 N   0  0  0  0  0  0  0  0  0  0  0  0
   13.4010   10.3010   40.4410 C   0  0  0  0  0  0  0  0  0  0  0  0
   13.7890   11.3480   39.7070 N   0  0  0  0  0  0  0  0  0  0  0  0
   14.9650   11.7010   40.2560 N   0  0  0  0  0  0  0  0  0  0  0  0
   15.6880   12.8250   39.7040 C   0  0  0  0  0  0  0  0  0  0  0  0
   16.3877   11.0969   43.1543 H   0  0  0  0  0  0  0  0  0  0  0  0
   17.3208   10.3464   41.8153 H   0  0  0  0  0  0  0  0  0  0  0  0
   17.0155   12.1166   41.8153 H   0  0  0  0  0  0  0  0  0  0  0  0
   15.1360    8.6030   42.7570 H   0  0  0  0  0  0  0  0  0  0  0  0
   10.5514    8.9327   44.8651 H   0  0  0  0  0  0  0  0  0  0  0  0
    9.7826    6.7641   45.7674 H   0  0  0  0  0  0  0  0  0  0  0  0
    9.1906    6.2563   44.1183 H   0  0  0  0  0  0  0  0  0  0  0  0
   12.0913    5.2981   43.3227 H   0  0  0  0  0  0  0  0  0  0  0  0
   12.4656    9.7473   40.2723 H   0  0  0  0  0  0  0  0  0  0  0  0
   16.0855   13.4430   40.5226 H   0  0  0  0  0  0  0  0  0  0  0  0
   16.5196   12.4577   39.0847 H   0  0  0  0  0  0  0  0  0  0  0  0
   15.0089   13.4294   39.0847 H   0  0  0  0  0  0  0  0  0  0  0  0
  1  2  1  0
  2  3  2  0
  3  4  1  0
  4  5  1  0
  5  6  2  0
  6  7  1  0
  7  8  2  0
  8  9  1  0
  9 10  1  0
 10 11  1  0
 10 12  1  0
 10 13  1  0
  8 14  1  0
 14 15  2  0
  3 16  1  0
 16 17  2  0
 17 18  1  0
 18 19  1  0
 18  2  1  0
 15  5  1  0
  1 20  1  0
  1 21  1  0
  1 22  1  0
  4 23  1  0
  7 24  1  0
  9 25  1  0
  9 26  1  0
 14 27  1  0
 16 28  1  0
 19 29  1  0
 19 30  1  0
 19 31  1  0
M  END
>  <meeko>  (144) 
{"is_sidechain": false}

>  <vina_energy>  (144) 
-7.87

$$$$

     RDKit          3D

 35 36  0  0  0  0  0  0  0  0999 V2000
   15.4310   13.6250   39.1610 C   0  0  0  0  0  0  0  0  0  0  0  0
   16.1250   12.8090   40.1870 C   0  0  0  0  0  0  0  0  0  0  0  0
   15.7990   11.6100   40.7870 C   0  0  0  0  0  0  0  0  0  0  0  0
   14.6870   10.8920   40.5350 N   0  0  0  0  0  0  0  0  0  0  0  0
   14.1140    9.8160   41.2120 C   0  0  0  0  0  0  0  0  0  0  0  0
   14.3110    9.6260   42.5250 N   0  0  0  0  0  0  0  0  0  0  0  0
   13.7130    8.5600   43.0930 C   0  0  0  0  0  0  0  0  0  0  0  0
   12.9140    7.6700   42.4120 C   0  0  0  0  0  0  0  0  0  0  0  0
   12.3150    6.4780   43.0830 C   0  0  0  0  0  0  0  0  0  0  0  0
   11.7380    6.8490   44.3350 O   0  0  0  0  0  0  0  0  0  0  0  0
   10.3090    6.9640   44.2520 C   0  0  0  0  0  0  0  0  0  0  0  0
    9.5990    6.1170   45.3030 C   0  0  0  0  0  0  0  0  0  0  0  0
   10.4770    5.4740   46.1020 F   0  0  0  0  0  0  0  0  0  0  0  0
    8.7860    5.1960   44.7400 F   0  0  0  0  0  0  0  0  0  0  0  0
    8.8320    6.9030   46.0950 F   0  0  0  0  0  0  0  0  0  0  0  0
   12.7840    7.9450   41.0700 C   0  0  0  0  0  0  0  0  0  0  0  0
   13.3640    8.9980   40.4550 N   0  0  0  0  0  0  0  0  0  0  0  0
   16.8610   11.3440   41.6760 C   0  0  0  0  0  0  0  0  0  0  0  0
   17.7960   12.2980   41.6500 N   0  0  0  0  0  0  0  0  0  0  0  0
   17.3240   13.1790   40.7490 N   0  0  0  0  0  0  0  0  0  0  0  0
   18.0930   14.3680   40.4620 C   0  0  0  0  0  0  0  0  0  0  0  0
   14.7947   14.3732   39.6563 H   0  0  0  0  0  0  0  0  0  0  0  0
   16.1760   14.1354   38.5329 H   0  0  0  0  0  0  0  0  0  0  0  0
   14.8077   12.9716   38.5329 H   0  0  0  0  0  0  0  0  0  0  0  0
   14.0940   11.0950   39.7400 H   0  0  0  0  0  0  0  0  0  0  0  0
   13.8736    8.3907   44.1680 H   0  0  0  0  0  0  0  0  0  0  0  0
   11.5339    6.0523   42.4360 H   0  0  0  0  0  0  0  0  0  0  0  0
   13.1055    5.7341   43.2610 H   0  0  0  0  0  0  0  0  0  0  0  0
   10.0296    8.0177   44.3989 H   0  0  0  0  0  0  0  0  0  0  0  0
    9.9988    6.6010   43.2610 H   0  0  0  0  0  0  0  0  0  0  0  0
   12.1700    7.2654   40.4608 H   0  0  0  0  0  0  0  0  0  0  0  0
   16.9136   10.4523   42.3179 H   0  0  0  0  0  0  0  0  0  0  0  0
   18.4000   14.8427   41.4056 H   0  0  0  0  0  0  0  0  0  0  0  0
   18.9864   14.0955   39.8810 H   0  0  0  0  0  0  0  0  0  0  0  0
   17.4781   15.0710   39.8810 H   0  0  0  0  0  0  0  0  0  0  0  0
  1  2  1  0
  2  3  2  0
  3  4  1  0
  4  5  1  0
  5  6  2  0
  6  7  1  0
  7  8  2  0
  8  9  1  0
  9 10  1  0
 10 11  1  0
 11 12  1  0
 12 13  1  0
 12 14  1  0
 12 15  1  0
  8 16  1  0
 16 17  2  0
  3 18  1  0
 18 19  2  0
 19 20  1  0
 20 21  1  0
 20  2  1  0
 17  5  1  0
  1 22  1  0
  1 23  1  0
  1 24  1  0
  4 25  1  0
  7 26  1  0
  9 27  1  0
  9 28  1  0
 11 29  1  0
 11 30  1  0
 16 31  1  0
 18 32  1  0
 21 33  1  0
 21 34  1  0
 21 35  1  0
M  END
>  <meeko>  (145) 
{"is_sidechain": false}

>  <vina_energy>  (145) 
-6.49

$$$$

     RDKit          3D

 31 32  0  0  0  0  0  0  0  0999 V2000
   16.2530   10.5890   42.2300 C   0  0  0  0  0  0  0  0  0  0  0  0
   14.9310   10.4060   41.5820 C   0  0  0  0  0  0  0  0  0  0  0  0
   13.9090    9.5020   41.7970 C   0  0  0  0  0  0  0  0  0  0  0  0
   13.9210    8.5220   42.7230 N   0  0  0  0  0  0  0  0  0  0  0  0
   12.8750    7.8620   43.3640 C   0  0  0  0  0  0  0  0  0  0  0  0
   11.9050    8.5310   44.0050 N   0  0  0  0  0  0  0  0  0  0  0  0
   10.9310    7.8230   44.6000 C   0  0  0  0  0  0  0  0  0  0  0  0
   10.8610    6.4490   44.5680 C   0  0  0  0  0  0  0  0  0  0  0  0
    9.7390    5.6900   45.1750 C   0  0  0  0  0  0  0  0  0  0  0  0
    8.8480    6.5530   45.9880 N   0  0  0  0  0  0  0  0  0  0  0  0
   11.8990    5.8440   43.8940 C   0  0  0  0  0  0  0  0  0  0  0  0
   12.8920    6.5210   43.2910 N   0  0  0  0  0  0  0  0  0  0  0  0
   12.9160    9.8430   40.8580 C   0  0  0  0  0  0  0  0  0  0  0  0
   13.2700   10.8800   40.0960 N   0  0  0  0  0  0  0  0  0  0  0  0
   14.4890   11.2130   40.5580 N   0  0  0  0  0  0  0  0  0  0  0  0
   15.1890   12.3270   39.9590 C   0  0  0  0  0  0  0  0  0  0  0  0
   16.1310   10.5721   43.3231 H   0  0  0  0  0  0  0  0  0  0  0  0
   16.9272    9.7756   41.9237 H   0  0  0  0  0  0  0  0  0  0  0  0
   16.6809   11.5549   41.9237 H   0  0  0  0  0  0  0  0  0  0  0  0
   14.7930    8.1550   43.0790 H   0  0  0  0  0  0  0  0  0  0  0  0
   10.1466    8.3712   45.1424 H   0  0  0  0  0  0  0  0  0  0  0  0
    9.1471    5.2300   44.3700 H   0  0  0  0  0  0  0  0  0  0  0  0
   10.1704    4.9296   45.8426 H   0  0  0  0  0  0  0  0  0  0  0  0
    9.0760    7.5490   45.8720 H   0  0  0  0  0  0  0  0  0  0  0  0
    7.8610    6.4280   45.7230 H   0  0  0  0  0  0  0  0  0  0  0  0
    8.9260    6.3410   46.9920 H   0  0  0  0  0  0  0  0  0  0  0  0
   11.9165    4.7452   43.8464 H   0  0  0  0  0  0  0  0  0  0  0  0
   11.9563    9.3139   40.7633 H   0  0  0  0  0  0  0  0  0  0  0  0
   15.5952   12.9734   40.7509 H   0  0  0  0  0  0  0  0  0  0  0  0
   16.0127   11.9498   39.3351 H   0  0  0  0  0  0  0  0  0  0  0  0
   14.4918   12.9055   39.3351 H   0  0  0  0  0  0  0  0  0  0  0  0
  1  2  1  0
  2  3  2  0
  3  4  1  0
  4  5  1  0
  5  6  2  0
  6  7  1  0
  7  8  2  0
  8  9  1  0
  9 10  1  0
  8 11  1  0
 11 12  2  0
  3 13  1  0
 13 14  2  0
 14 15  1  0
 15 16  1  0
 15  2  1  0
 12  5  1  0
  1 17  1  0
  1 18  1  0
  1 19  1  0
  4 20  1  0
  7 21  1  0
  9 22  1  0
  9 23  1  0
 10 24  1  0
 10 25  1  0
 10 26  1  0
 11 27  1  0
 13 28  1  0
 16 29  1  0
 16 30  1  0
 16 31  1  0
M  CHG  1  10   1
M  END
>  <meeko>  (146) 
{"is_sidechain": false}

>  <vina_energy>  (146) 
-7.95

$$$$

     RDKit          3D

 32 34  0  0  0  0  0  0  0  0999 V2000
   14.6830   12.6300   39.9920 C   0  0  0  0  0  0  0  0  0  0  0  0
   15.4100   11.7380   40.9280 C   0  0  0  0  0  0  0  0  0  0  0  0
   15.0680   10.5340   41.5070 C   0  0  0  0  0  0  0  0  0  0  0  0
   13.9050    9.8850   41.3130 N   0  0  0  0  0  0  0  0  0  0  0  0
   13.2420    8.9260   42.0810 C   0  0  0  0  0  0  0  0  0  0  0  0
   12.9920    7.6950   41.6090 N   0  0  0  0  0  0  0  0  0  0  0  0
   12.3530    6.8430   42.4370 C   0  0  0  0  0  0  0  0  0  0  0  0
   11.9490    7.1560   43.7160 C   0  0  0  0  0  0  0  0  0  0  0  0
   11.1820    6.1700   44.5530 C   0  0  0  0  0  0  0  0  0  0  0  0
   10.1020    6.7390   45.3890 C   0  0  0  0  0  0  0  0  0  0  0  0
   10.3290    7.5100   46.4710 N   0  0  0  0  0  0  0  0  0  0  0  0
    9.0850    7.8300   46.9030 N   0  0  0  0  0  0  0  0  0  0  0  0
    8.1640    7.2560   46.0930 N   0  0  0  0  0  0  0  0  0  0  0  0
    8.7930    6.5490   45.1240 N   0  0  0  0  0  0  0  0  0  0  0  0
   12.2430    8.4480   44.0990 C   0  0  0  0  0  0  0  0  0  0  0  0
   12.8800    9.3380   43.3060 N   0  0  0  0  0  0  0  0  0  0  0  0
   16.1760   10.1800   42.3010 C   0  0  0  0  0  0  0  0  0  0  0  0
   17.1580   11.0860   42.2370 N   0  0  0  0  0  0  0  0  0  0  0  0
   16.6640   12.0250   41.4090 N   0  0  0  0  0  0  0  0  0  0  0  0
   17.4690   13.1870   41.1080 C   0  0  0  0  0  0  0  0  0  0  0  0
   14.0899   13.3578   40.5652 H   0  0  0  0  0  0  0  0  0  0  0  0
   15.4062   13.1643   39.3584 H   0  0  0  0  0  0  0  0  0  0  0  0
   14.0138   12.0294   39.3584 H   0  0  0  0  0  0  0  0  0  0  0  0
   13.3190   10.0580   40.5070 H   0  0  0  0  0  0  0  0  0  0  0  0
   12.1402    5.8297   42.0656 H   0  0  0  0  0  0  0  0  0  0  0  0
   10.7303    5.4309   43.8750 H   0  0  0  0  0  0  0  0  0  0  0  0
   11.9119    5.7435   45.2568 H   0  0  0  0  0  0  0  0  0  0  0  0
   11.9422    8.7722   45.1062 H   0  0  0  0  0  0  0  0  0  0  0  0
   16.2280    9.2624   42.9054 H   0  0  0  0  0  0  0  0  0  0  0  0
   17.7962   13.6593   42.0460 H   0  0  0  0  0  0  0  0  0  0  0  0
   18.3500   12.8816   40.5245 H   0  0  0  0  0  0  0  0  0  0  0  0
   16.8734   13.9045   40.5245 H   0  0  0  0  0  0  0  0  0  0  0  0
  1  2  1  0
  2  3  2  0
  3  4  1  0
  4  5  1  0
  5  6  2  0
  6  7  1  0
  7  8  2  0
  8  9  1  0
  9 10  1  0
 10 11  1  0
 11 12  2  0
 12 13  1  0
 13 14  1  0
  8 15  1  0
 15 16  2  0
  3 17  1  0
 17 18  2  0
 18 19  1  0
 19 20  1  0
 19  2  1  0
 16  5  1  0
 14 10  2  0
  1 21  1  0
  1 22  1  0
  1 23  1  0
  4 24  1  0
  7 25  1  0
  9 26  1  0
  9 27  1  0
 15 28  1  0
 17 29  1  0
 20 30  1  0
 20 31  1  0
 20 32  1  0
M  CHG  1  13  -1
M  END
>  <meeko>  (147) 
{"is_sidechain": false}

>  <vina_energy>  (147) 
-7.85

$$$$

     RDKit          3D

 38 40  0  0  0  0  0  0  0  0999 V2000
   14.9310   13.0940   39.6050 C   0  0  0  0  0  0  0  0  0  0  0  0
   15.6780   12.1960   40.5200 C   0  0  0  0  0  0  0  0  0  0  0  0
   15.3710   10.9690   41.0690 C   0  0  0  0  0  0  0  0  0  0  0  0
   14.2280   10.2860   40.8580 N   0  0  0  0  0  0  0  0  0  0  0  0
   13.6530    9.2290   41.5600 C   0  0  0  0  0  0  0  0  0  0  0  0
   13.6170    9.3630   42.8950 N   0  0  0  0  0  0  0  0  0  0  0  0
   13.0580    8.3720   43.6110 C   0  0  0  0  0  0  0  0  0  0  0  0
   12.4980    7.2470   43.0460 C   0  0  0  0  0  0  0  0  0  0  0  0
   11.7580    6.2200   43.8410 C   0  0  0  0  0  0  0  0  0  0  0  0
   10.4170    6.7800   44.3150 C   0  0  0  0  0  0  0  0  0  0  0  0
    9.6010    7.5620   43.3540 N   0  0  0  0  0  0  0  0  0  0  0  0
   10.2830    7.2040   45.7570 C   0  0  0  0  0  0  0  0  0  0  0  0
    9.6170    5.9430   45.2830 C   0  0  0  0  0  0  0  0  0  0  0  0
   12.6070    7.1820   41.6760 C   0  0  0  0  0  0  0  0  0  0  0  0
   13.1390    8.1610   40.9290 N   0  0  0  0  0  0  0  0  0  0  0  0
   16.4900   10.6300   41.8570 C   0  0  0  0  0  0  0  0  0  0  0  0
   17.4470   11.5590   41.8080 N   0  0  0  0  0  0  0  0  0  0  0  0
   16.9270   12.5080   41.0090 N   0  0  0  0  0  0  0  0  0  0  0  0
   17.6970   13.7030   40.7430 C   0  0  0  0  0  0  0  0  0  0  0  0
   14.3374   13.8076   40.1953 H   0  0  0  0  0  0  0  0  0  0  0  0
   15.6414   13.6445   38.9707 H   0  0  0  0  0  0  0  0  0  0  0  0
   14.2604   12.4957   38.9707 H   0  0  0  0  0  0  0  0  0  0  0  0
   13.6090   10.5340   40.0960 H   0  0  0  0  0  0  0  0  0  0  0  0
   13.0471    8.4642   44.7071 H   0  0  0  0  0  0  0  0  0  0  0  0
   11.5798    5.3345   43.2132 H   0  0  0  0  0  0  0  0  0  0  0  0
   12.3609    5.9448   44.7189 H   0  0  0  0  0  0  0  0  0  0  0  0
    9.2130    6.9610   42.6150 H   0  0  0  0  0  0  0  0  0  0  0  0
    8.8120    8.0340   43.8150 H   0  0  0  0  0  0  0  0  0  0  0  0
   10.1670    8.2940   42.8980 H   0  0  0  0  0  0  0  0  0  0  0  0
   11.1516    7.1474   46.4295 H   0  0  0  0  0  0  0  0  0  0  0  0
    9.9442    8.1159   46.2705 H   0  0  0  0  0  0  0  0  0  0  0  0
    9.9985    4.9640   45.6087 H   0  0  0  0  0  0  0  0  0  0  0  0
    8.5895    5.5509   45.3063 H   0  0  0  0  0  0  0  0  0  0  0  0
   12.2384    6.2796   41.1663 H   0  0  0  0  0  0  0  0  0  0  0  0
   16.5657    9.7040   42.4459 H   0  0  0  0  0  0  0  0  0  0  0  0
   17.9955   14.1663   41.6950 H   0  0  0  0  0  0  0  0  0  0  0  0
   18.5955   13.4393   40.1659 H   0  0  0  0  0  0  0  0  0  0  0  0
   17.0856   14.4123   40.1659 H   0  0  0  0  0  0  0  0  0  0  0  0
  1  2  1  0
  2  3  2  0
  3  4  1  0
  4  5  1  0
  5  6  2  0
  6  7  1  0
  7  8  2  0
  8  9  1  0
  9 10  1  0
 10 11  1  0
 10 12  1  0
 12 13  1  0
  8 14  1  0
 14 15  2  0
  3 16  1  0
 16 17  2  0
 17 18  1  0
 18 19  1  0
 18  2  1  0
 15  5  1  0
 13 10  1  0
  1 20  1  0
  1 21  1  0
  1 22  1  0
  4 23  1  0
  7 24  1  0
  9 25  1  0
  9 26  1  0
 11 27  1  0
 11 28  1  0
 11 29  1  0
 12 30  1  0
 12 31  1  0
 13 32  1  0
 13 33  1  0
 14 34  1  0
 16 35  1  0
 19 36  1  0
 19 37  1  0
 19 38  1  0
M  CHG  1  11   1
M  END
>  <meeko>  (148) 
{"is_sidechain": false}

>  <vina_energy>  (148) 
-6.60

$$$$

     RDKit          3D

 29 30  0  0  0  0  0  0  0  0999 V2000
   16.3670   10.7560   42.1230 C   0  0  0  0  0  0  0  0  0  0  0  0
   15.0450   10.5500   41.4820 C   0  0  0  0  0  0  0  0  0  0  0  0
   14.0540    9.6110   41.6870 C   0  0  0  0  0  0  0  0  0  0  0  0
   14.1070    8.6100   42.5870 N   0  0  0  0  0  0  0  0  0  0  0  0
   13.0940    7.8970   43.2280 C   0  0  0  0  0  0  0  0  0  0  0  0
   13.0050    6.5610   43.1310 N   0  0  0  0  0  0  0  0  0  0  0  0
   11.9950    5.9550   43.7830 C   0  0  0  0  0  0  0  0  0  0  0  0
   11.0680    6.6250   44.5480 C   0  0  0  0  0  0  0  0  0  0  0  0
    9.9500    5.9310   45.2590 C   0  0  0  0  0  0  0  0  0  0  0  0
    9.0330    6.8680   45.9210 C   0  0  0  0  0  0  0  0  0  0  0  0
    8.2970    7.5990   46.4430 N   0  0  0  0  0  0  0  0  0  0  0  0
   11.2360    7.9920   44.5790 C   0  0  0  0  0  0  0  0  0  0  0  0
   12.2310    8.6390   43.9400 N   0  0  0  0  0  0  0  0  0  0  0  0
   13.0370    9.9460   40.7700 C   0  0  0  0  0  0  0  0  0  0  0  0
   13.3500   11.0140   40.0300 N   0  0  0  0  0  0  0  0  0  0  0  0
   14.5710   11.3610   40.4790 N   0  0  0  0  0  0  0  0  0  0  0  0
   15.2350   12.5040   39.8940 C   0  0  0  0  0  0  0  0  0  0  0  0
   16.2510   10.7379   43.2167 H   0  0  0  0  0  0  0  0  0  0  0  0
   17.0534    9.9540   41.8138 H   0  0  0  0  0  0  0  0  0  0  0  0
   16.7768   11.7288   41.8138 H   0  0  0  0  0  0  0  0  0  0  0  0
   14.9890    8.2480   42.9210 H   0  0  0  0  0  0  0  0  0  0  0  0
   11.9057    4.8618   43.6994 H   0  0  0  0  0  0  0  0  0  0  0  0
    9.3808    5.3390   44.5271 H   0  0  0  0  0  0  0  0  0  0  0  0
   10.3951    5.2945   46.0379 H   0  0  0  0  0  0  0  0  0  0  0  0
   10.5170    8.5898   45.1584 H   0  0  0  0  0  0  0  0  0  0  0  0
   12.0922    9.3909   40.6743 H   0  0  0  0  0  0  0  0  0  0  0  0
   15.6142   13.1568   40.6940 H   0  0  0  0  0  0  0  0  0  0  0  0
   16.0746   12.1613   39.2714 H   0  0  0  0  0  0  0  0  0  0  0  0
   14.5214   13.0636   39.2714 H   0  0  0  0  0  0  0  0  0  0  0  0
  1  2  1  0
  2  3  2  0
  3  4  1  0
  4  5  1  0
  5  6  2  0
  6  7  1  0
  7  8  2  0
  8  9  1  0
  9 10  1  0
 10 11  3  0
  8 12  1  0
 12 13  2  0
  3 14  1  0
 14 15  2  0
 15 16  1  0
 16 17  1  0
 16  2  1  0
 13  5  1  0
  1 18  1  0
  1 19  1  0
  1 20  1  0
  4 21  1  0
  7 22  1  0
  9 23  1  0
  9 24  1  0
 12 25  1  0
 14 26  1  0
 17 27  1  0
 17 28  1  0
 17 29  1  0
M  END
>  <meeko>  (149) 
{"is_sidechain": false}

>  <vina_energy>  (149) 
-7.85

$$$$

     RDKit          3D

 34 35  0  0  0  0  0  0  0  0999 V2000
   16.3100   11.0760   42.0230 C   0  0  0  0  0  0  0  0  0  0  0  0
   15.0180   10.7580   41.3670 C   0  0  0  0  0  0  0  0  0  0  0  0
   14.0850    9.7650   41.5910 C   0  0  0  0  0  0  0  0  0  0  0  0
   14.1790    8.8080   42.5370 N   0  0  0  0  0  0  0  0  0  0  0  0
   13.1930    8.1050   43.2240 C   0  0  0  0  0  0  0  0  0  0  0  0
   12.2480    8.7340   43.9400 N   0  0  0  0  0  0  0  0  0  0  0  0
   11.3310    7.9830   44.5710 C   0  0  0  0  0  0  0  0  0  0  0  0
   11.3210    6.6060   44.5400 C   0  0  0  0  0  0  0  0  0  0  0  0
   10.3300    5.7890   45.3060 C   0  0  0  0  0  0  0  0  0  0  0  0
    8.9190    6.3620   45.1680 C   0  0  0  0  0  0  0  0  0  0  0  0
    8.4870    6.9820   46.4490 N   0  0  0  0  0  0  0  0  0  0  0  0
   12.3240    6.0470   43.7790 C   0  0  0  0  0  0  0  0  0  0  0  0
   13.2580    6.7660   43.1290 N   0  0  0  0  0  0  0  0  0  0  0  0
   13.0720    9.9940   40.6390 C   0  0  0  0  0  0  0  0  0  0  0  0
   13.3300   11.0520   39.8660 N   0  0  0  0  0  0  0  0  0  0  0  0
   14.5180   11.4920   40.3170 N   0  0  0  0  0  0  0  0  0  0  0  0
   15.1230   12.6460   39.6920 C   0  0  0  0  0  0  0  0  0  0  0  0
   16.1840   11.0450   43.1153 H   0  0  0  0  0  0  0  0  0  0  0  0
   17.0667   10.3373   41.7200 H   0  0  0  0  0  0  0  0  0  0  0  0
   16.6373   12.0815   41.7200 H   0  0  0  0  0  0  0  0  0  0  0  0
   15.0800    8.4760   42.8540 H   0  0  0  0  0  0  0  0  0  0  0  0
   10.5445    8.4957   45.1442 H   0  0  0  0  0  0  0  0  0  0  0  0
   10.3387    4.7591   44.9198 H   0  0  0  0  0  0  0  0  0  0  0  0
   10.6112    5.8060   46.3693 H   0  0  0  0  0  0  0  0  0  0  0  0
    8.9128    7.1246   44.3753 H   0  0  0  0  0  0  0  0  0  0  0  0
    8.2251    5.5476   44.9123 H   0  0  0  0  0  0  0  0  0  0  0  0
    7.5700    7.4440   46.3690 H   0  0  0  0  0  0  0  0  0  0  0  0
    8.3990    6.2690   47.1860 H   0  0  0  0  0  0  0  0  0  0  0  0
    9.1630    7.6810   46.7900 H   0  0  0  0  0  0  0  0  0  0  0  0
   12.3639    4.9507   43.6979 H   0  0  0  0  0  0  0  0  0  0  0  0
   12.1702    9.3715   40.5432 H   0  0  0  0  0  0  0  0  0  0  0  0
   15.4848   13.3360   40.4685 H   0  0  0  0  0  0  0  0  0  0  0  0
   15.9678   12.3231   39.0659 H   0  0  0  0  0  0  0  0  0  0  0  0
   14.3769   13.1572   39.0659 H   0  0  0  0  0  0  0  0  0  0  0  0
  1  2  1  0
  2  3  2  0
  3  4  1  0
  4  5  1  0
  5  6  2  0
  6  7  1  0
  7  8  2  0
  8  9  1  0
  9 10  1  0
 10 11  1  0
  8 12  1  0
 12 13  2  0
  3 14  1  0
 14 15  2  0
 15 16  1  0
 16 17  1  0
 16  2  1  0
 13  5  1  0
  1 18  1  0
  1 19  1  0
  1 20  1  0
  4 21  1  0
  7 22  1  0
  9 23  1  0
  9 24  1  0
 10 25  1  0
 10 26  1  0
 11 27  1  0
 11 28  1  0
 11 29  1  0
 12 30  1  0
 14 31  1  0
 17 32  1  0
 17 33  1  0
 17 34  1  0
M  CHG  1  11   1
M  END
>  <meeko>  (150) 
{"is_sidechain": false}

>  <vina_energy>  (150) 
-7.45

$$$$

     RDKit          3D

 37 39  0  0  0  0  0  0  0  0999 V2000
   17.5400   14.6660   39.1680 C   0  0  0  0  0  0  0  0  0  0  0  0
   18.5460   14.2430   40.1720 C   0  0  0  0  0  0  0  0  0  0  0  0
   18.4250   13.6460   41.4110 C   0  0  0  0  0  0  0  0  0  0  0  0
   17.2610   13.3070   41.9970 N   0  0  0  0  0  0  0  0  0  0  0  0
   16.3910   12.2420   41.7600 C   0  0  0  0  0  0  0  0  0  0  0  0
   16.5790   11.0400   42.3230 N   0  0  0  0  0  0  0  0  0  0  0  0
   15.6900   10.0690   42.0360 C   0  0  0  0  0  0  0  0  0  0  0  0
   14.6040   10.2480   41.2080 C   0  0  0  0  0  0  0  0  0  0  0  0
   13.6150    9.1680   40.9180 C   0  0  0  0  0  0  0  0  0  0  0  0
   13.1240    8.5460   42.1390 N   0  0  0  0  0  0  0  0  0  0  0  0
   12.6750    9.1820   43.2610 C   0  0  0  0  0  0  0  0  0  0  0  0
   12.3130    8.1820   44.1330 C   0  0  0  0  0  0  0  0  0  0  0  0
   12.5900    6.9830   43.4490 C   0  0  0  0  0  0  0  0  0  0  0  0
   12.3770    5.7650   43.9510 N   0  0  0  0  0  0  0  0  0  0  0  0
   13.1000    7.2040   42.2410 N   0  0  0  0  0  0  0  0  0  0  0  0
   14.4940   11.5160   40.6820 C   0  0  0  0  0  0  0  0  0  0  0  0
   15.3620   12.5140   40.9380 N   0  0  0  0  0  0  0  0  0  0  0  0
   19.7470   13.4930   41.8760 C   0  0  0  0  0  0  0  0  0  0  0  0
   20.6480   13.9570   41.0050 N   0  0  0  0  0  0  0  0  0  0  0  0
   19.8990   14.4090   39.9850 N   0  0  0  0  0  0  0  0  0  0  0  0
   20.5540   14.9950   38.8380 C   0  0  0  0  0  0  0  0  0  0  0  0
   16.6440   15.0428   39.6830 H   0  0  0  0  0  0  0  0  0  0  0  0
   17.9630   15.4624   38.5381 H   0  0  0  0  0  0  0  0  0  0  0  0
   17.2668   13.8066   38.5381 H   0  0  0  0  0  0  0  0  0  0  0  0
   16.8660   13.8550   42.7480 H   0  0  0  0  0  0  0  0  0  0  0  0
   15.8400    9.0776   42.4884 H   0  0  0  0  0  0  0  0  0  0  0  0
   12.7643    9.6010   40.3714 H   0  0  0  0  0  0  0  0  0  0  0  0
   14.1171    8.3953   40.3173 H   0  0  0  0  0  0  0  0  0  0  0  0
   12.6154   10.2671   43.4316 H   0  0  0  0  0  0  0  0  0  0  0  0
   11.8973    8.2945   45.1452 H   0  0  0  0  0  0  0  0  0  0  0  0
   12.9930    4.9970   43.7130 H   0  0  0  0  0  0  0  0  0  0  0  0
   11.4080    5.4890   44.0650 H   0  0  0  0  0  0  0  0  0  0  0  0
   13.6467   11.7265   40.0128 H   0  0  0  0  0  0  0  0  0  0  0  0
   20.0072   13.0429   42.8454 H   0  0  0  0  0  0  0  0  0  0  0  0
   21.3337   15.6926   39.1777 H   0  0  0  0  0  0  0  0  0  0  0  0
   21.0123   14.1999   38.2316 H   0  0  0  0  0  0  0  0  0  0  0  0
   19.8146   15.5386   38.2316 H   0  0  0  0  0  0  0  0  0  0  0  0
  1  2  1  0
  2  3  2  0
  3  4  1  0
  4  5  1  0
  5  6  2  0
  6  7  1  0
  7  8  2  0
  8  9  1  0
  9 10  1  0
 10 11  1  0
 11 12  2  0
 12 13  1  0
 13 14  1  0
 13 15  2  0
  8 16  1  0
 16 17  2  0
  3 18  1  0
 18 19  2  0
 19 20  1  0
 20 21  1  0
 20  2  1  0
 17  5  1  0
 15 10  1  0
  1 22  1  0
  1 23  1  0
  1 24  1  0
  4 25  1  0
  7 26  1  0
  9 27  1  0
  9 28  1  0
 11 29  1  0
 12 30  1  0
 14 31  1  0
 14 32  1  0
 16 33  1  0
 18 34  1  0
 21 35  1  0
 21 36  1  0
 21 37  1  0
M  END
>  <meeko>  (151) 
{"is_sidechain": false}

>  <vina_energy>  (151) 
-6.36

$$$$

     RDKit          3D

 37 39  0  0  0  0  0  0  0  0999 V2000
   15.4610   13.6680   39.2090 C   0  0  0  0  0  0  0  0  0  0  0  0
   16.1160   12.8040   40.2210 C   0  0  0  0  0  0  0  0  0  0  0  0
   15.7350   11.6130   40.8060 C   0  0  0  0  0  0  0  0  0  0  0  0
   14.5890   10.9550   40.5470 N   0  0  0  0  0  0  0  0  0  0  0  0
   14.0110    9.8400   41.1570 C   0  0  0  0  0  0  0  0  0  0  0  0
   13.1050    9.0800   40.5220 N   0  0  0  0  0  0  0  0  0  0  0  0
   12.6040    8.0240   41.1900 C   0  0  0  0  0  0  0  0  0  0  0  0
   12.9680    7.6860   42.4720 C   0  0  0  0  0  0  0  0  0  0  0  0
   12.3890    6.5110   43.1910 C   0  0  0  0  0  0  0  0  0  0  0  0
   11.3660    6.9190   44.1430 N   0  0  0  0  0  0  0  0  0  0  0  0
   10.3620    6.1370   44.6460 C   0  0  0  0  0  0  0  0  0  0  0  0
    9.6520    6.9510   45.4870 C   0  0  0  0  0  0  0  0  0  0  0  0
    8.5770    6.5910   46.2000 N   0  0  0  0  0  0  0  0  0  0  0  0
   10.2890    8.2040   45.4240 C   0  0  0  0  0  0  0  0  0  0  0  0
   11.3450    8.1890   44.6010 N   0  0  0  0  0  0  0  0  0  0  0  0
   13.9030    8.5230   43.0380 C   0  0  0  0  0  0  0  0  0  0  0  0
   14.4290    9.5930   42.4090 N   0  0  0  0  0  0  0  0  0  0  0  0
   16.7850   11.2850   41.6870 C   0  0  0  0  0  0  0  0  0  0  0  0
   17.7640   12.1940   41.6730 N   0  0  0  0  0  0  0  0  0  0  0  0
   17.3340   13.1070   40.7840 N   0  0  0  0  0  0  0  0  0  0  0  0
   18.1570   14.2630   40.5120 C   0  0  0  0  0  0  0  0  0  0  0  0
   14.8716   14.4455   39.7170 H   0  0  0  0  0  0  0  0  0  0  0  0
   16.2285   14.1422   38.5797 H   0  0  0  0  0  0  0  0  0  0  0  0
   14.7971   13.0571   38.5797 H   0  0  0  0  0  0  0  0  0  0  0  0
   13.9650   11.2470   39.8060 H   0  0  0  0  0  0  0  0  0  0  0  0
   11.8597    7.3946   40.6802 H   0  0  0  0  0  0  0  0  0  0  0  0
   11.9403    5.8274   42.4553 H   0  0  0  0  0  0  0  0  0  0  0  0
   13.1979    6.0131   43.7459 H   0  0  0  0  0  0  0  0  0  0  0  0
   10.1667    5.0779   44.4219 H   0  0  0  0  0  0  0  0  0  0  0  0
    8.6720    6.2050   47.1350 H   0  0  0  0  0  0  0  0  0  0  0  0
    7.7150    6.3100   45.7410 H   0  0  0  0  0  0  0  0  0  0  0  0
    9.9585    9.0909   45.9845 H   0  0  0  0  0  0  0  0  0  0  0  0
   14.2403    8.3062   44.0623 H   0  0  0  0  0  0  0  0  0  0  0  0
   16.7971   10.3822   42.3154 H   0  0  0  0  0  0  0  0  0  0  0  0
   18.4791   14.7154   41.4615 H   0  0  0  0  0  0  0  0  0  0  0  0
   19.0409   13.9559   39.9337 H   0  0  0  0  0  0  0  0  0  0  0  0
   17.5776   14.9977   39.9337 H   0  0  0  0  0  0  0  0  0  0  0  0
  1  2  1  0
  2  3  2  0
  3  4  1  0
  4  5  1  0
  5  6  2  0
  6  7  1  0
  7  8  2  0
  8  9  1  0
  9 10  1  0
 10 11  1  0
 11 12  2  0
 12 13  1  0
 12 14  1  0
 14 15  2  0
  8 16  1  0
 16 17  2  0
  3 18  1  0
 18 19  2  0
 19 20  1  0
 20 21  1  0
 20  2  1  0
 17  5  1  0
 15 10  1  0
  1 22  1  0
  1 23  1  0
  1 24  1  0
  4 25  1  0
  7 26  1  0
  9 27  1  0
  9 28  1  0
 11 29  1  0
 13 30  1  0
 13 31  1  0
 14 32  1  0
 16 33  1  0
 18 34  1  0
 21 35  1  0
 21 36  1  0
 21 37  1  0
M  END
>  <meeko>  (152) 
{"is_sidechain": false}

>  <vina_energy>  (152) 
-7.04

$$$$

     RDKit          3D

 36 38  0  0  0  0  0  0  0  0999 V2000
   15.2200   13.4890   39.3370 C   0  0  0  0  0  0  0  0  0  0  0  0
   15.9560   12.6090   40.2790 C   0  0  0  0  0  0  0  0  0  0  0  0
   15.6710   11.3610   40.7940 C   0  0  0  0  0  0  0  0  0  0  0  0
   14.5690   10.6390   40.5130 N   0  0  0  0  0  0  0  0  0  0  0  0
   13.9690    9.5770   41.1910 C   0  0  0  0  0  0  0  0  0  0  0  0
   13.1780    8.6970   40.5590 N   0  0  0  0  0  0  0  0  0  0  0  0
   12.6420    7.7030   41.2940 C   0  0  0  0  0  0  0  0  0  0  0  0
   12.8540    7.5510   42.6460 C   0  0  0  0  0  0  0  0  0  0  0  0
   12.2550    6.4330   43.4410 C   0  0  0  0  0  0  0  0  0  0  0  0
   11.1720    6.8870   44.3630 C   0  0  0  0  0  0  0  0  0  0  0  0
   10.9040    8.1540   44.8410 C   0  0  0  0  0  0  0  0  0  0  0  0
    9.8260    8.2550   45.6980 N   0  0  0  0  0  0  0  0  0  0  0  0
    9.2840    7.0770   45.8740 C   0  0  0  0  0  0  0  0  0  0  0  0
    8.2100    6.8730   46.6540 N   0  0  0  0  0  0  0  0  0  0  0  0
   10.0270    5.7890   45.0170 S   0  0  0  0  0  0  0  0  0  0  0  0
   13.6860    8.4980   43.2000 C   0  0  0  0  0  0  0  0  0  0  0  0
   14.2440    9.5090   42.5040 N   0  0  0  0  0  0  0  0  0  0  0  0
   16.7610   11.0540   41.6330 C   0  0  0  0  0  0  0  0  0  0  0  0
   17.6740   12.0280   41.6580 N   0  0  0  0  0  0  0  0  0  0  0  0
   17.1630   12.9620   40.8370 N   0  0  0  0  0  0  0  0  0  0  0  0
   17.8990   14.1860   40.6200 C   0  0  0  0  0  0  0  0  0  0  0  0
   14.6160   14.2112   39.9058 H   0  0  0  0  0  0  0  0  0  0  0  0
   15.9383   14.0302   38.7036 H   0  0  0  0  0  0  0  0  0  0  0  0
   14.5604   12.8777   38.7036 H   0  0  0  0  0  0  0  0  0  0  0  0
   14.0090   10.8270   39.6920 H   0  0  0  0  0  0  0  0  0  0  0  0
   11.9981    6.9709   40.7847 H   0  0  0  0  0  0  0  0  0  0  0  0
   11.8345    5.6934   42.7438 H   0  0  0  0  0  0  0  0  0  0  0  0
   13.0562    6.0043   44.0609 H   0  0  0  0  0  0  0  0  0  0  0  0
   11.5102    9.0270   44.5574 H   0  0  0  0  0  0  0  0  0  0  0  0
    7.7320    7.6960   47.0020 H   0  0  0  0  0  0  0  0  0  0  0  0
    8.3340    6.1520   47.3560 H   0  0  0  0  0  0  0  0  0  0  0  0
   13.9088    8.4254   44.2748 H   0  0  0  0  0  0  0  0  0  0  0  0
   16.8496   10.1174   42.2031 H   0  0  0  0  0  0  0  0  0  0  0  0
   18.1661   14.6302   41.5902 H   0  0  0  0  0  0  0  0  0  0  0  0
   18.8154   13.9671   40.0523 H   0  0  0  0  0  0  0  0  0  0  0  0
   17.2760   14.8927   40.0523 H   0  0  0  0  0  0  0  0  0  0  0  0
  1  2  1  0
  2  3  2  0
  3  4  1  0
  4  5  1  0
  5  6  2  0
  6  7  1  0
  7  8  2  0
  8  9  1  0
  9 10  1  0
 10 11  2  0
 11 12  1  0
 12 13  2  0
 13 14  1  0
 13 15  1  0
  8 16  1  0
 16 17  2  0
  3 18  1  0
 18 19  2  0
 19 20  1  0
 20 21  1  0
 20  2  1  0
 17  5  1  0
 15 10  1  0
  1 22  1  0
  1 23  1  0
  1 24  1  0
  4 25  1  0
  7 26  1  0
  9 27  1  0
  9 28  1  0
 11 29  1  0
 14 30  1  0
 14 31  1  0
 16 32  1  0
 18 33  1  0
 21 34  1  0
 21 35  1  0
 21 36  1  0
M  END
>  <meeko>  (153) 
{"is_sidechain": false}

>  <vina_energy>  (153) 
-7.25

$$$$

     RDKit          3D

 35 37  0  0  0  0  0  0  0  0999 V2000
   15.2600   13.4780   39.2670 C   0  0  0  0  0  0  0  0  0  0  0  0
   15.9690   12.6310   40.2570 C   0  0  0  0  0  0  0  0  0  0  0  0
   15.6680   11.4010   40.8060 C   0  0  0  0  0  0  0  0  0  0  0  0
   14.5710   10.6720   40.5210 N   0  0  0  0  0  0  0  0  0  0  0  0
   13.9840    9.5970   41.1880 C   0  0  0  0  0  0  0  0  0  0  0  0
   13.2270    8.6950   40.5420 N   0  0  0  0  0  0  0  0  0  0  0  0
   12.7040    7.6900   41.2670 C   0  0  0  0  0  0  0  0  0  0  0  0
   12.8970    7.5410   42.6220 C   0  0  0  0  0  0  0  0  0  0  0  0
   12.3010    6.4130   43.4060 C   0  0  0  0  0  0  0  0  0  0  0  0
   11.1160    6.8280   44.2170 C   0  0  0  0  0  0  0  0  0  0  0  0
   10.5390    8.0070   44.1410 N   0  0  0  0  0  0  0  0  0  0  0  0
    9.4750    8.1180   45.0150 N   0  0  0  0  0  0  0  0  0  0  0  0
    9.2820    7.0260   45.7190 C   0  0  0  0  0  0  0  0  0  0  0  0
    8.3100    6.8690   46.6370 N   0  0  0  0  0  0  0  0  0  0  0  0
   10.3860    5.7620   45.3500 S   0  0  0  0  0  0  0  0  0  0  0  0
   13.6880    8.5120   43.1950 C   0  0  0  0  0  0  0  0  0  0  0  0
   14.2320    9.5370   42.5070 N   0  0  0  0  0  0  0  0  0  0  0  0
   16.7340   11.1200   41.6830 C   0  0  0  0  0  0  0  0  0  0  0  0
   17.6490   12.0930   41.7000 N   0  0  0  0  0  0  0  0  0  0  0  0
   17.1620   12.9990   40.8340 N   0  0  0  0  0  0  0  0  0  0  0  0
   17.9070   14.2150   40.5950 C   0  0  0  0  0  0  0  0  0  0  0  0
   14.6404   14.2181   39.7946 H   0  0  0  0  0  0  0  0  0  0  0  0
   15.9956   13.9985   38.6361 H   0  0  0  0  0  0  0  0  0  0  0  0
   14.6182   12.8455   38.6361 H   0  0  0  0  0  0  0  0  0  0  0  0
   14.0030   10.8650   39.7060 H   0  0  0  0  0  0  0  0  0  0  0  0
   12.0859    6.9434   40.7468 H   0  0  0  0  0  0  0  0  0  0  0  0
   11.9875    5.6257   42.7046 H   0  0  0  0  0  0  0  0  0  0  0  0
   13.0705    6.0561   44.1063 H   0  0  0  0  0  0  0  0  0  0  0  0
    8.5640    7.1190   47.5870 H   0  0  0  0  0  0  0  0  0  0  0  0
    7.3690    7.1420   46.3800 H   0  0  0  0  0  0  0  0  0  0  0  0
   13.8875    8.4481   44.2749 H   0  0  0  0  0  0  0  0  0  0  0  0
   16.8049   10.2027   42.2859 H   0  0  0  0  0  0  0  0  0  0  0  0
   18.1855   14.6695   41.5572 H   0  0  0  0  0  0  0  0  0  0  0  0
   18.8170   13.9811   40.0230 H   0  0  0  0  0  0  0  0  0  0  0  0
   17.2853   14.9195   40.0230 H   0  0  0  0  0  0  0  0  0  0  0  0
  1  2  1  0
  2  3  2  0
  3  4  1  0
  4  5  1  0
  5  6  2  0
  6  7  1  0
  7  8  2  0
  8  9  1  0
  9 10  1  0
 10 11  2  0
 11 12  1  0
 12 13  2  0
 13 14  1  0
 13 15  1  0
  8 16  1  0
 16 17  2  0
  3 18  1  0
 18 19  2  0
 19 20  1  0
 20 21  1  0
 20  2  1  0
 17  5  1  0
 15 10  1  0
  1 22  1  0
  1 23  1  0
  1 24  1  0
  4 25  1  0
  7 26  1  0
  9 27  1  0
  9 28  1  0
 14 29  1  0
 14 30  1  0
 16 31  1  0
 18 32  1  0
 21 33  1  0
 21 34  1  0
 21 35  1  0
M  END
>  <meeko>  (154) 
{"is_sidechain": false}

>  <vina_energy>  (154) 
-7.88

$$$$

     RDKit          3D

 37 38  0  0  0  0  0  0  0  0999 V2000
   16.4090   11.1460   41.9810 C   0  0  0  0  0  0  0  0  0  0  0  0
   15.1150   10.8330   41.3240 C   0  0  0  0  0  0  0  0  0  0  0  0
   14.1780    9.8450   41.5490 C   0  0  0  0  0  0  0  0  0  0  0  0
   14.2640    8.8910   42.4980 N   0  0  0  0  0  0  0  0  0  0  0  0
   13.2740    8.1590   43.1500 C   0  0  0  0  0  0  0  0  0  0  0  0
   12.2690    8.7620   43.8060 N   0  0  0  0  0  0  0  0  0  0  0  0
   11.3560    7.9810   44.4050 C   0  0  0  0  0  0  0  0  0  0  0  0
   11.4010    6.6050   44.3980 C   0  0  0  0  0  0  0  0  0  0  0  0
   10.4030    5.7600   45.1240 C   0  0  0  0  0  0  0  0  0  0  0  0
    9.0470    6.4690   45.2310 C   0  0  0  0  0  0  0  0  0  0  0  0
    8.9970    7.3880   46.4420 C   0  0  0  0  0  0  0  0  0  0  0  0
    7.7170    8.1410   46.4290 N   0  0  0  0  0  0  0  0  0  0  0  0
   12.4650    6.0770   43.7020 C   0  0  0  0  0  0  0  0  0  0  0  0
   13.4000    6.8230   43.0830 N   0  0  0  0  0  0  0  0  0  0  0  0
   13.1680   10.0760   40.5920 C   0  0  0  0  0  0  0  0  0  0  0  0
   13.4310   11.1310   39.8200 N   0  0  0  0  0  0  0  0  0  0  0  0
   14.6170   11.5720   40.2760 N   0  0  0  0  0  0  0  0  0  0  0  0
   15.2290   12.7240   39.6530 C   0  0  0  0  0  0  0  0  0  0  0  0
   16.2825   11.1154   43.0733 H   0  0  0  0  0  0  0  0  0  0  0  0
   17.1628   10.4043   41.6783 H   0  0  0  0  0  0  0  0  0  0  0  0
   16.7405   12.1502   41.6783 H   0  0  0  0  0  0  0  0  0  0  0  0
   15.1600    8.5820   42.8500 H   0  0  0  0  0  0  0  0  0  0  0  0
   10.5231    8.4691   44.9323 H   0  0  0  0  0  0  0  0  0  0  0  0
   10.2707    4.8136   44.5792 H   0  0  0  0  0  0  0  0  0  0  0  0
   10.7792    5.5738   46.1408 H   0  0  0  0  0  0  0  0  0  0  0  0
    8.8820    7.0655   44.3216 H   0  0  0  0  0  0  0  0  0  0  0  0
    8.2639    5.7047   45.3430 H   0  0  0  0  0  0  0  0  0  0  0  0
    9.0623    6.7886   47.3620 H   0  0  0  0  0  0  0  0  0  0  0  0
    9.8413    8.0923   46.4075 H   0  0  0  0  0  0  0  0  0  0  0  0
    7.3010    8.1510   45.4870 H   0  0  0  0  0  0  0  0  0  0  0  0
    7.8460    9.1230   46.7130 H   0  0  0  0  0  0  0  0  0  0  0  0
    7.0210    7.7270   47.0630 H   0  0  0  0  0  0  0  0  0  0  0  0
   12.5568    4.9822   43.6483 H   0  0  0  0  0  0  0  0  0  0  0  0
   12.2649    9.4557   40.4935 H   0  0  0  0  0  0  0  0  0  0  0  0
   15.5939   13.4109   40.4308 H   0  0  0  0  0  0  0  0  0  0  0  0
   16.0726   12.3975   39.0271 H   0  0  0  0  0  0  0  0  0  0  0  0
   14.4862   13.2402   39.0271 H   0  0  0  0  0  0  0  0  0  0  0  0
  1  2  1  0
  2  3  2  0
  3  4  1  0
  4  5  1  0
  5  6  2  0
  6  7  1  0
  7  8  2  0
  8  9  1  0
  9 10  1  0
 10 11  1  0
 11 12  1  0
  8 13  1  0
 13 14  2  0
  3 15  1  0
 15 16  2  0
 16 17  1  0
 17 18  1  0
 17  2  1  0
 14  5  1  0
  1 19  1  0
  1 20  1  0
  1 21  1  0
  4 22  1  0
  7 23  1  0
  9 24  1  0
  9 25  1  0
 10 26  1  0
 10 27  1  0
 11 28  1  0
 11 29  1  0
 12 30  1  0
 12 31  1  0
 12 32  1  0
 13 33  1  0
 15 34  1  0
 18 35  1  0
 18 36  1  0
 18 37  1  0
M  CHG  1  12   1
M  END
>  <meeko>  (155) 
{"is_sidechain": false}

>  <vina_energy>  (155) 
-6.86

$$$$

     RDKit          3D

 36 37  0  0  0  0  0  0  0  0999 V2000
   18.4360   14.5550   39.2120 C   0  0  0  0  0  0  0  0  0  0  0  0
   18.4380   14.7810   40.6780 C   0  0  0  0  0  0  0  0  0  0  0  0
   18.2920   13.9170   41.7440 C   0  0  0  0  0  0  0  0  0  0  0  0
   18.0960   12.5880   41.6420 N   0  0  0  0  0  0  0  0  0  0  0  0
   16.9260   11.8380   41.5120 C   0  0  0  0  0  0  0  0  0  0  0  0
   16.8830   10.7140   42.2460 N   0  0  0  0  0  0  0  0  0  0  0  0
   15.7740    9.9520   42.1490 C   0  0  0  0  0  0  0  0  0  0  0  0
   14.6970   10.2670   41.3520 C   0  0  0  0  0  0  0  0  0  0  0  0
   13.4860    9.4020   41.2520 C   0  0  0  0  0  0  0  0  0  0  0  0
   12.7810    9.3240   42.5150 N   0  0  0  0  0  0  0  0  0  0  0  0
   12.7500    8.1550   43.2500 C   0  0  0  0  0  0  0  0  0  0  0  0
   13.3590    7.1430   42.9090 O   0  0  0  0  0  0  0  0  0  0  0  0
   11.9200    8.2100   44.5090 C   0  0  0  0  0  0  0  0  0  0  0  0
   10.6260    7.5720   44.2870 C   0  0  0  0  0  0  0  0  0  0  0  0
    9.5810    7.1060   44.0910 N   0  0  0  0  0  0  0  0  0  0  0  0
   14.8380   11.4380   40.6430 C   0  0  0  0  0  0  0  0  0  0  0  0
   15.9270   12.2270   40.7060 N   0  0  0  0  0  0  0  0  0  0  0  0
   18.3920   14.7290   42.8910 C   0  0  0  0  0  0  0  0  0  0  0  0
   18.5850   16.0150   42.5880 N   0  0  0  0  0  0  0  0  0  0  0  0
   18.5970   16.0250   41.2420 N   0  0  0  0  0  0  0  0  0  0  0  0
   18.7830   17.2820   40.5550 C   0  0  0  0  0  0  0  0  0  0  0  0
   18.4264   13.4742   39.0076 H   0  0  0  0  0  0  0  0  0  0  0  0
   17.5419   15.0195   38.7706 H   0  0  0  0  0  0  0  0  0  0  0  0
   19.3381   15.0037   38.7706 H   0  0  0  0  0  0  0  0  0  0  0  0
   18.8710   11.9370   41.6330 H   0  0  0  0  0  0  0  0  0  0  0  0
   15.7278    9.0259   42.7408 H   0  0  0  0  0  0  0  0  0  0  0  0
   12.8104    9.8201   40.4912 H   0  0  0  0  0  0  0  0  0  0  0  0
   13.8094    8.3877   40.9751 H   0  0  0  0  0  0  0  0  0  0  0  0
   12.1270   10.0660   42.7310 H   0  0  0  0  0  0  0  0  0  0  0  0
   12.4503    7.6850   45.3172 H   0  0  0  0  0  0  0  0  0  0  0  0
   11.7589    9.2619   44.7875 H   0  0  0  0  0  0  0  0  0  0  0  0
   14.0120   11.7477   39.9859 H   0  0  0  0  0  0  0  0  0  0  0  0
   18.3193   14.3467   43.9199 H   0  0  0  0  0  0  0  0  0  0  0  0
   18.9024   18.0890   41.2929 H   0  0  0  0  0  0  0  0  0  0  0  0
   19.6826   17.2256   39.9245 H   0  0  0  0  0  0  0  0  0  0  0  0
   17.9056   17.4886   39.9245 H   0  0  0  0  0  0  0  0  0  0  0  0
  1  2  1  0
  2  3  2  0
  3  4  1  0
  4  5  1  0
  5  6  2  0
  6  7  1  0
  7  8  2  0
  8  9  1  0
  9 10  1  0
 10 11  1  0
 11 12  2  0
 11 13  1  0
 13 14  1  0
 14 15  3  0
  8 16  1  0
 16 17  2  0
  3 18  1  0
 18 19  2  0
 19 20  1  0
 20 21  1  0
 20  2  1  0
 17  5  1  0
  1 22  1  0
  1 23  1  0
  1 24  1  0
  4 25  1  0
  7 26  1  0
  9 27  1  0
  9 28  1  0
 10 29  1  0
 13 30  1  0
 13 31  1  0
 16 32  1  0
 18 33  1  0
 21 34  1  0
 21 35  1  0
 21 36  1  0
M  END
>  <meeko>  (156) 
{"is_sidechain": false}

>  <vina_energy>  (156) 
-6.73

$$$$

     RDKit          3D

 38 39  0  0  0  0  0  0  0  0999 V2000
   15.4280   13.4220   39.4730 C   0  0  0  0  0  0  0  0  0  0  0  0
   16.0570   12.5250   40.4750 C   0  0  0  0  0  0  0  0  0  0  0  0
   15.6630   11.3140   41.0070 C   0  0  0  0  0  0  0  0  0  0  0  0
   14.5280   10.6580   40.6900 N   0  0  0  0  0  0  0  0  0  0  0  0
   13.9070    9.5630   41.2900 C   0  0  0  0  0  0  0  0  0  0  0  0
   13.9550    9.5340   42.6330 N   0  0  0  0  0  0  0  0  0  0  0  0
   13.3640    8.4960   43.2560 C   0  0  0  0  0  0  0  0  0  0  0  0
   12.7110    7.4790   42.5950 C   0  0  0  0  0  0  0  0  0  0  0  0
   12.0130    6.3700   43.3000 C   0  0  0  0  0  0  0  0  0  0  0  0
   11.4770    6.8180   44.5750 N   0  0  0  0  0  0  0  0  0  0  0  0
   10.1550    7.1530   44.6990 C   0  0  0  0  0  0  0  0  0  0  0  0
    9.3490    7.1470   43.7690 O   0  0  0  0  0  0  0  0  0  0  0  0
    9.6890    7.5720   46.0920 C   0  0  0  0  0  0  0  0  0  0  0  0
    8.2840    7.1100   46.3160 N   0  0  0  0  0  0  0  0  0  0  0  0
   12.7220    7.5930   41.2250 C   0  0  0  0  0  0  0  0  0  0  0  0
   13.2950    8.6150   40.5640 N   0  0  0  0  0  0  0  0  0  0  0  0
   16.6880   10.9590   41.9060 C   0  0  0  0  0  0  0  0  0  0  0  0
   17.6660   11.8670   41.9470 N   0  0  0  0  0  0  0  0  0  0  0  0
   17.2550   12.8160   41.0850 N   0  0  0  0  0  0  0  0  0  0  0  0
   18.0820   13.9830   40.8810 C   0  0  0  0  0  0  0  0  0  0  0  0
   14.8708   14.2166   39.9908 H   0  0  0  0  0  0  0  0  0  0  0  0
   16.2089   13.8727   38.8429 H   0  0  0  0  0  0  0  0  0  0  0  0
   14.7382   12.8413   38.8429 H   0  0  0  0  0  0  0  0  0  0  0  0
   13.9560   10.9500   39.9100 H   0  0  0  0  0  0  0  0  0  0  0  0
   13.4052    8.4584   44.3546 H   0  0  0  0  0  0  0  0  0  0  0  0
   11.1873    6.0070   42.6704 H   0  0  0  0  0  0  0  0  0  0  0  0
   12.7375    5.5640   43.4885 H   0  0  0  0  0  0  0  0  0  0  0  0
   12.0660    6.6970   45.3930 H   0  0  0  0  0  0  0  0  0  0  0  0
   10.3472    7.1200   46.8487 H   0  0  0  0  0  0  0  0  0  0  0  0
    9.7285    8.6682   46.1740 H   0  0  0  0  0  0  0  0  0  0  0  0
    7.6320    7.7440   45.8310 H   0  0  0  0  0  0  0  0  0  0  0  0
    8.1100    6.1460   46.0130 H   0  0  0  0  0  0  0  0  0  0  0  0
    8.0420    7.2030   47.3130 H   0  0  0  0  0  0  0  0  0  0  0  0
   12.2341    6.8029   40.6353 H   0  0  0  0  0  0  0  0  0  0  0  0
   16.6831   10.0374   42.5066 H   0  0  0  0  0  0  0  0  0  0  0  0
   18.3765   14.3986   41.8559 H   0  0  0  0  0  0  0  0  0  0  0  0
   18.9823   13.7001   40.3159 H   0  0  0  0  0  0  0  0  0  0  0  0
   17.5168   14.7387   40.3159 H   0  0  0  0  0  0  0  0  0  0  0  0
  1  2  1  0
  2  3  2  0
  3  4  1  0
  4  5  1  0
  5  6  2  0
  6  7  1  0
  7  8  2  0
  8  9  1  0
  9 10  1  0
 10 11  1  0
 11 12  2  0
 11 13  1  0
 13 14  1  0
  8 15  1  0
 15 16  2  0
  3 17  1  0
 17 18  2  0
 18 19  1  0
 19 20  1  0
 19  2  1  0
 16  5  1  0
  1 21  1  0
  1 22  1  0
  1 23  1  0
  4 24  1  0
  7 25  1  0
  9 26  1  0
  9 27  1  0
 10 28  1  0
 13 29  1  0
 13 30  1  0
 14 31  1  0
 14 32  1  0
 14 33  1  0
 15 34  1  0
 17 35  1  0
 20 36  1  0
 20 37  1  0
 20 38  1  0
M  CHG  1  14   1
M  END
>  <meeko>  (157) 
{"is_sidechain": false}

>  <vina_energy>  (157) 
-6.92

$$$$

     RDKit          3D

 41 42  0  0  0  0  0  0  0  0999 V2000
   19.1700   14.6790   39.2880 C   0  0  0  0  0  0  0  0  0  0  0  0
   18.9750   14.9360   40.7360 C   0  0  0  0  0  0  0  0  0  0  0  0
   18.6050   14.1150   41.7810 C   0  0  0  0  0  0  0  0  0  0  0  0
   18.3270   12.7990   41.6750 N   0  0  0  0  0  0  0  0  0  0  0  0
   17.1160   12.1300   41.5020 C   0  0  0  0  0  0  0  0  0  0  0  0
   16.8350   11.0000   42.1700 N   0  0  0  0  0  0  0  0  0  0  0  0
   15.6430   10.4210   41.9440 C   0  0  0  0  0  0  0  0  0  0  0  0
   14.7060   10.9190   41.0700 C   0  0  0  0  0  0  0  0  0  0  0  0
   13.4030   10.2360   40.8050 C   0  0  0  0  0  0  0  0  0  0  0  0
   13.3750    8.8240   41.3980 C   0  0  0  0  0  0  0  0  0  0  0  0
   12.3690    8.6770   42.4420 N   0  0  0  0  0  0  0  0  0  0  0  0
   12.4570    7.6850   43.3860 C   0  0  0  0  0  0  0  0  0  0  0  0
   13.3460    6.8350   43.4150 O   0  0  0  0  0  0  0  0  0  0  0  0
   11.3670    7.6650   44.4540 C   0  0  0  0  0  0  0  0  0  0  0  0
   10.0220    7.6560   43.8000 N   0  0  0  0  0  0  0  0  0  0  0  0
   15.0830   12.0780   40.4290 C   0  0  0  0  0  0  0  0  0  0  0  0
   16.2660   12.6910   40.6260 N   0  0  0  0  0  0  0  0  0  0  0  0
   18.5920   14.9500   42.9160 C   0  0  0  0  0  0  0  0  0  0  0  0
   18.9310   16.2090   42.6250 N   0  0  0  0  0  0  0  0  0  0  0  0
   19.1590   16.1770   41.2990 N   0  0  0  0  0  0  0  0  0  0  0  0
   19.5530   17.3930   40.6250 C   0  0  0  0  0  0  0  0  0  0  0  0
   19.8301   13.8091   39.1556 H   0  0  0  0  0  0  0  0  0  0  0  0
   18.1968   14.4758   38.8173 H   0  0  0  0  0  0  0  0  0  0  0  0
   19.6278   15.5616   38.8173 H   0  0  0  0  0  0  0  0  0  0  0  0
   19.0590   12.1030   41.7140 H   0  0  0  0  0  0  0  0  0  0  0  0
   15.4038    9.4962   42.4894 H   0  0  0  0  0  0  0  0  0  0  0  0
   12.5920   10.8279   41.2543 H   0  0  0  0  0  0  0  0  0  0  0  0
   13.2730   10.1541   39.7158 H   0  0  0  0  0  0  0  0  0  0  0  0
   13.1551    8.1075   40.5928 H   0  0  0  0  0  0  0  0  0  0  0  0
   14.3584    8.6327   41.8522 H   0  0  0  0  0  0  0  0  0  0  0  0
   11.6040    9.3430   42.4390 H   0  0  0  0  0  0  0  0  0  0  0  0
   11.4785    6.7630   45.0737 H   0  0  0  0  0  0  0  0  0  0  0  0
   11.4592    8.5605   45.0861 H   0  0  0  0  0  0  0  0  0  0  0  0
   10.0450    7.8580   42.7960 H   0  0  0  0  0  0  0  0  0  0  0  0
    9.5790    6.7360   43.9550 H   0  0  0  0  0  0  0  0  0  0  0  0
    9.3960    8.3250   44.2700 H   0  0  0  0  0  0  0  0  0  0  0  0
   14.3777   12.5289   39.7154 H   0  0  0  0  0  0  0  0  0  0  0  0
   18.3321   14.6042   43.9274 H   0  0  0  0  0  0  0  0  0  0  0  0
   19.8021   18.1617   41.3714 H   0  0  0  0  0  0  0  0  0  0  0  0
   20.4328   17.1946   39.9953 H   0  0  0  0  0  0  0  0  0  0  0  0
   18.7240   17.7483   39.9953 H   0  0  0  0  0  0  0  0  0  0  0  0
  1  2  1  0
  2  3  2  0
  3  4  1  0
  4  5  1  0
  5  6  2  0
  6  7  1  0
  7  8  2  0
  8  9  1  0
  9 10  1  0
 10 11  1  0
 11 12  1  0
 12 13  2  0
 12 14  1  0
 14 15  1  0
  8 16  1  0
 16 17  2  0
  3 18  1  0
 18 19  2  0
 19 20  1  0
 20 21  1  0
 20  2  1  0
 17  5  1  0
  1 22  1  0
  1 23  1  0
  1 24  1  0
  4 25  1  0
  7 26  1  0
  9 27  1  0
  9 28  1  0
 10 29  1  0
 10 30  1  0
 11 31  1  0
 14 32  1  0
 14 33  1  0
 15 34  1  0
 15 35  1  0
 15 36  1  0
 16 37  1  0
 18 38  1  0
 21 39  1  0
 21 40  1  0
 21 41  1  0
M  CHG  1  15   1
M  END
>  <meeko>  (158) 
{"is_sidechain": false}

>  <vina_energy>  (158) 
-6.51

$$$$

     RDKit          3D

 36 37  0  0  0  0  0  0  0  0999 V2000
   16.3740   10.2570   42.3500 C   0  0  0  0  0  0  0  0  0  0  0  0
   15.3710   10.7030   41.3510 C   0  0  0  0  0  0  0  0  0  0  0  0
   14.2400   10.0990   40.8430 C   0  0  0  0  0  0  0  0  0  0  0  0
   13.7900    8.8780   41.1900 N   0  0  0  0  0  0  0  0  0  0  0  0
   13.0720    8.4440   42.3050 C   0  0  0  0  0  0  0  0  0  0  0  0
   12.9540    7.1140   42.4270 N   0  0  0  0  0  0  0  0  0  0  0  0
   12.2630    6.6410   43.4850 C   0  0  0  0  0  0  0  0  0  0  0  0
   11.6800    7.4510   44.4360 C   0  0  0  0  0  0  0  0  0  0  0  0
   10.8890    6.9170   45.5940 C   0  0  0  0  0  0  0  0  0  0  0  0
    9.4830    6.4760   45.1850 C   0  0  2  0  0  0  0  0  0  0  0  0
    8.4820    6.8320   46.2820 N   0  0  0  0  0  0  0  0  0  0  0  0
    9.3830    4.9420   44.9370 C   0  0  0  0  0  0  0  0  0  0  0  0
    8.2000    4.6640   44.5450 O   0  0  0  0  0  0  0  0  0  0  0  0
   10.3880    4.2430   45.1740 O   0  0  0  0  0  0  0  0  0  0  0  0
   11.8640    8.8000   44.2230 C   0  0  0  0  0  0  0  0  0  0  0  0
   12.5390    9.3120   43.1800 N   0  0  0  0  0  0  0  0  0  0  0  0
   13.7090   11.0270   39.9250 C   0  0  0  0  0  0  0  0  0  0  0  0
   14.4420   12.1420   39.8480 N   0  0  0  0  0  0  0  0  0  0  0  0
   15.4380   11.9260   40.7260 N   0  0  0  0  0  0  0  0  0  0  0  0
   16.4440   12.9470   40.9140 C   0  0  0  0  0  0  0  0  0  0  0  0
   15.9840   10.4304   43.3638 H   0  0  0  0  0  0  0  0  0  0  0  0
   16.5758    9.1843   42.2133 H   0  0  0  0  0  0  0  0  0  0  0  0
   17.3056   10.8257   42.2133 H   0  0  0  0  0  0  0  0  0  0  0  0
   13.9500    8.0660   40.6060 H   0  0  0  0  0  0  0  0  0  0  0  0
   12.1594    5.5514   43.5945 H   0  0  0  0  0  0  0  0  0  0  0  0
   11.4215    6.0524   46.0169 H   0  0  0  0  0  0  0  0  0  0  0  0
   10.7856    7.7265   46.3316 H   0  0  0  0  0  0  0  0  0  0  0  0
    9.2562    7.0026   44.2463 H   0  0  0  0  0  0  0  0  0  0  0  0
    8.5290    6.2180   47.0960 H   0  0  0  0  0  0  0  0  0  0  0  0
    8.4140    7.8250   46.5050 H   0  0  0  0  0  0  0  0  0  0  0  0
    7.5870    6.5370   45.8060 H   0  0  0  0  0  0  0  0  0  0  0  0
   11.4315    9.5011   44.9520 H   0  0  0  0  0  0  0  0  0  0  0  0
   12.7949   10.8534   39.3383 H   0  0  0  0  0  0  0  0  0  0  0  0
   16.6045   13.1099   41.9900 H   0  0  0  0  0  0  0  0  0  0  0  0
   17.3863   12.6236   40.4475 H   0  0  0  0  0  0  0  0  0  0  0  0
   16.1067   13.8844   40.4475 H   0  0  0  0  0  0  0  0  0  0  0  0
  1  2  1  0
  2  3  2  0
  3  4  1  0
  4  5  1  0
  5  6  2  0
  6  7  1  0
  7  8  2  0
  8  9  1  0
  9 10  1  0
 10 11  1  0
 10 12  1  0
 12 13  2  0
 12 14  1  0
  8 15  1  0
 15 16  2  0
  3 17  1  0
 17 18  2  0
 18 19  1  0
 19 20  1  0
 19  2  1  0
 16  5  1  0
  1 21  1  0
  1 22  1  0
  1 23  1  0
  4 24  1  0
  7 25  1  0
  9 26  1  0
  9 27  1  0
 10 28  1  6
 11 29  1  0
 11 30  1  0
 11 31  1  0
 15 32  1  0
 17 33  1  0
 20 34  1  0
 20 35  1  0
 20 36  1  0
M  CHG  2  11   1  14  -1
M  END
>  <meeko>  (159) 
{"is_sidechain": false}

>  <vina_energy>  (159) 
-7.03

$$$$

     RDKit          3D

 32 33  0  0  0  0  0  0  0  0999 V2000
   16.2640   11.1980   41.9150 C   0  0  0  0  0  0  0  0  0  0  0  0
   14.9770   10.8300   41.2770 C   0  0  0  0  0  0  0  0  0  0  0  0
   14.0760    9.8140   41.5270 C   0  0  0  0  0  0  0  0  0  0  0  0
   14.2030    8.8870   42.4970 N   0  0  0  0  0  0  0  0  0  0  0  0
   13.2490    8.1600   43.2080 C   0  0  0  0  0  0  0  0  0  0  0  0
   13.3620    6.8250   43.1120 N   0  0  0  0  0  0  0  0  0  0  0  0
   12.4780    6.0770   43.8030 C   0  0  0  0  0  0  0  0  0  0  0  0
   11.4830    6.6050   44.5970 C   0  0  0  0  0  0  0  0  0  0  0  0
   10.5320    5.7550   45.3790 C   0  0  0  0  0  0  0  0  0  0  0  0
    9.0820    6.1760   45.2190 C   0  0  0  0  0  0  0  0  0  0  0  0
    8.5600    6.9260   46.2380 N   0  0  0  0  0  0  0  0  0  0  0  0
    8.3860    5.8750   44.2530 O   0  0  0  0  0  0  0  0  0  0  0  0
   11.4430    7.9810   44.6140 C   0  0  0  0  0  0  0  0  0  0  0  0
   12.3040    8.7670   43.9410 N   0  0  0  0  0  0  0  0  0  0  0  0
   13.0510    9.9890   40.5760 C   0  0  0  0  0  0  0  0  0  0  0  0
   13.2700   11.0410   39.7810 N   0  0  0  0  0  0  0  0  0  0  0  0
   14.4460   11.5300   40.2180 N   0  0  0  0  0  0  0  0  0  0  0  0
   14.9980   12.7010   39.5800 C   0  0  0  0  0  0  0  0  0  0  0  0
   16.1532   11.1663   43.0089 H   0  0  0  0  0  0  0  0  0  0  0  0
   17.0437   10.4868   41.6047 H   0  0  0  0  0  0  0  0  0  0  0  0
   16.5498   12.2139   41.6047 H   0  0  0  0  0  0  0  0  0  0  0  0
   15.1040    8.6420   42.8830 H   0  0  0  0  0  0  0  0  0  0  0  0
   12.5556    4.9823   43.7286 H   0  0  0  0  0  0  0  0  0  0  0  0
   10.6332    4.7138   45.0389 H   0  0  0  0  0  0  0  0  0  0  0  0
   10.7899    5.8697   46.4422 H   0  0  0  0  0  0  0  0  0  0  0  0
    9.0130    7.0250   47.1320 H   0  0  0  0  0  0  0  0  0  0  0  0
    7.5730    7.1440   46.1750 H   0  0  0  0  0  0  0  0  0  0  0  0
   10.6599    8.4677   45.2139 H   0  0  0  0  0  0  0  0  0  0  0  0
   12.1706    9.3343   40.4969 H   0  0  0  0  0  0  0  0  0  0  0  0
   15.3337   13.4132   40.3482 H   0  0  0  0  0  0  0  0  0  0  0  0
   15.8529   12.4082   38.9528 H   0  0  0  0  0  0  0  0  0  0  0  0
   14.2281   13.1741   38.9528 H   0  0  0  0  0  0  0  0  0  0  0  0
  1  2  1  0
  2  3  2  0
  3  4  1  0
  4  5  1  0
  5  6  2  0
  6  7  1  0
  7  8  2  0
  8  9  1  0
  9 10  1  0
 10 11  1  0
 10 12  2  0
  8 13  1  0
 13 14  2  0
  3 15  1  0
 15 16  2  0
 16 17  1  0
 17 18  1  0
 17  2  1  0
 14  5  1  0
  1 19  1  0
  1 20  1  0
  1 21  1  0
  4 22  1  0
  7 23  1  0
  9 24  1  0
  9 25  1  0
 11 26  1  0
 11 27  1  0
 13 28  1  0
 15 29  1  0
 18 30  1  0
 18 31  1  0
 18 32  1  0
M  END
>  <meeko>  (160) 
{"is_sidechain": false}

>  <vina_energy>  (160) 
-7.77

$$$$

     RDKit          3D

 35 36  0  0  0  0  0  0  0  0999 V2000
   14.6820   12.6420   39.9860 C   0  0  0  0  0  0  0  0  0  0  0  0
   15.4090   11.7690   40.9390 C   0  0  0  0  0  0  0  0  0  0  0  0
   15.0760   10.5680   41.5330 C   0  0  0  0  0  0  0  0  0  0  0  0
   13.9190    9.9050   41.3440 N   0  0  0  0  0  0  0  0  0  0  0  0
   13.2310    9.0050   42.1600 C   0  0  0  0  0  0  0  0  0  0  0  0
   12.7990    9.3540   43.3820 N   0  0  0  0  0  0  0  0  0  0  0  0
   12.1460    8.4180   44.0970 C   0  0  0  0  0  0  0  0  0  0  0  0
   11.8960    7.1420   43.6450 C   0  0  0  0  0  0  0  0  0  0  0  0
   11.1420    6.1320   44.4560 C   0  0  0  0  0  0  0  0  0  0  0  0
    9.6770    6.5140   44.6650 C   0  0  0  0  0  0  0  0  0  0  0  0
    9.4210    7.1460   46.0160 C   0  0  0  0  0  0  0  0  0  0  0  0
    8.1060    7.2030   46.3730 N   0  0  0  0  0  0  0  0  0  0  0  0
   10.2900    7.6200   46.7370 O   0  0  0  0  0  0  0  0  0  0  0  0
   12.3720    6.8840   42.3790 C   0  0  0  0  0  0  0  0  0  0  0  0
   13.0360    7.7870   41.6300 N   0  0  0  0  0  0  0  0  0  0  0  0
   16.1850   10.2360   42.3360 C   0  0  0  0  0  0  0  0  0  0  0  0
   17.1550   11.1520   42.2690 N   0  0  0  0  0  0  0  0  0  0  0  0
   16.6620   12.0710   41.4190 N   0  0  0  0  0  0  0  0  0  0  0  0
   17.4600   13.2330   41.1000 C   0  0  0  0  0  0  0  0  0  0  0  0
   14.0757   13.3700   40.5449 H   0  0  0  0  0  0  0  0  0  0  0  0
   15.4057   13.1765   39.3531 H   0  0  0  0  0  0  0  0  0  0  0  0
   14.0253   12.0270   39.3531 H   0  0  0  0  0  0  0  0  0  0  0  0
   13.3790   10.0080   40.4960 H   0  0  0  0  0  0  0  0  0  0  0  0
   11.7912    8.6893   45.1022 H   0  0  0  0  0  0  0  0  0  0  0  0
   11.1818    5.1634   43.9361 H   0  0  0  0  0  0  0  0  0  0  0  0
   11.6160    6.0831   45.4474 H   0  0  0  0  0  0  0  0  0  0  0  0
    9.3855    7.2293   43.8818 H   0  0  0  0  0  0  0  0  0  0  0  0
    9.0839    5.5889   44.6152 H   0  0  0  0  0  0  0  0  0  0  0  0
    7.9030    7.5530   47.3010 H   0  0  0  0  0  0  0  0  0  0  0  0
    7.4010    6.6360   45.9220 H   0  0  0  0  0  0  0  0  0  0  0  0
   12.2007    5.8838   41.9545 H   0  0  0  0  0  0  0  0  0  0  0  0
   16.2453    9.3248   42.9493 H   0  0  0  0  0  0  0  0  0  0  0  0
   17.7920   13.7165   42.0306 H   0  0  0  0  0  0  0  0  0  0  0  0
   18.3380   12.9250   40.5133 H   0  0  0  0  0  0  0  0  0  0  0  0
   16.8573   13.9419   40.5133 H   0  0  0  0  0  0  0  0  0  0  0  0
  1  2  1  0
  2  3  2  0
  3  4  1  0
  4  5  1  0
  5  6  2  0
  6  7  1  0
  7  8  2  0
  8  9  1  0
  9 10  1  0
 10 11  1  0
 11 12  1  0
 11 13  2  0
  8 14  1  0
 14 15  2  0
  3 16  1  0
 16 17  2  0
 17 18  1  0
 18 19  1  0
 18  2  1  0
 15  5  1  0
  1 20  1  0
  1 21  1  0
  1 22  1  0
  4 23  1  0
  7 24  1  0
  9 25  1  0
  9 26  1  0
 10 27  1  0
 10 28  1  0
 12 29  1  0
 12 30  1  0
 14 31  1  0
 16 32  1  0
 19 33  1  0
 19 34  1  0
 19 35  1  0
M  END
>  <meeko>  (161) 
{"is_sidechain": false}

>  <vina_energy>  (161) 
-7.08

$$$$

     RDKit          3D

 38 39  0  0  0  0  0  0  0  0999 V2000
   15.1810   13.4020   39.3600 C   0  0  0  0  0  0  0  0  0  0  0  0
   15.9200   12.5470   40.3200 C   0  0  0  0  0  0  0  0  0  0  0  0
   15.6330   11.3150   40.8740 C   0  0  0  0  0  0  0  0  0  0  0  0
   14.5280   10.5890   40.6190 N   0  0  0  0  0  0  0  0  0  0  0  0
   13.9510    9.5200   41.3060 C   0  0  0  0  0  0  0  0  0  0  0  0
   14.2200    9.4750   42.6220 N   0  0  0  0  0  0  0  0  0  0  0  0
   13.6830    8.4580   43.3250 C   0  0  0  0  0  0  0  0  0  0  0  0
   12.8790    7.4840   42.7780 C   0  0  0  0  0  0  0  0  0  0  0  0
   12.3010    6.3630   43.5810 C   0  0  0  0  0  0  0  0  0  0  0  0
   10.8030    6.5450   43.8290 C   0  0  0  0  0  0  0  0  0  0  0  0
   10.5470    7.4800   45.0100 C   0  0  0  0  0  0  0  0  0  0  0  0
    9.2850    7.1140   45.7610 C   0  0  0  0  0  0  0  0  0  0  0  0
    8.8560    5.8380   45.5430 N   0  0  0  0  0  0  0  0  0  0  0  0
    8.6680    7.8700   46.4990 O   0  0  0  0  0  0  0  0  0  0  0  0
   12.6700    7.6170   41.4230 C   0  0  0  0  0  0  0  0  0  0  0  0
   13.1850    8.6150   40.6790 N   0  0  0  0  0  0  0  0  0  0  0  0
   16.7250   11.0300   41.7190 C   0  0  0  0  0  0  0  0  0  0  0  0
   17.6440   11.9990   41.7080 N   0  0  0  0  0  0  0  0  0  0  0  0
   17.1370   12.9050   40.8520 N   0  0  0  0  0  0  0  0  0  0  0  0
   17.8790   14.1160   40.5910 C   0  0  0  0  0  0  0  0  0  0  0  0
   14.5592   14.1214   39.9130 H   0  0  0  0  0  0  0  0  0  0  0  0
   15.8973   13.9467   38.7274 H   0  0  0  0  0  0  0  0  0  0  0  0
   14.5383   12.7721   38.7274 H   0  0  0  0  0  0  0  0  0  0  0  0
   13.9440   10.7770   39.8150 H   0  0  0  0  0  0  0  0  0  0  0  0
   13.9007    8.4031   44.4019 H   0  0  0  0  0  0  0  0  0  0  0  0
   12.4584    5.4196   43.0376 H   0  0  0  0  0  0  0  0  0  0  0  0
   12.8067    6.3505   44.5578 H   0  0  0  0  0  0  0  0  0  0  0  0
   10.3394    6.9712   42.9271 H   0  0  0  0  0  0  0  0  0  0  0  0
   10.3671    5.5624   44.0624 H   0  0  0  0  0  0  0  0  0  0  0  0
   11.4009    7.4211   45.7009 H   0  0  0  0  0  0  0  0  0  0  0  0
   10.4234    8.4993   44.6153 H   0  0  0  0  0  0  0  0  0  0  0  0
    8.0500    5.5280   46.0710 H   0  0  0  0  0  0  0  0  0  0  0  0
    9.4220    5.1410   45.0810 H   0  0  0  0  0  0  0  0  0  0  0  0
   12.0461    6.8642   40.9190 H   0  0  0  0  0  0  0  0  0  0  0  0
   16.8105   10.1126   42.3199 H   0  0  0  0  0  0  0  0  0  0  0  0
   18.1653   14.5833   41.5447 H   0  0  0  0  0  0  0  0  0  0  0  0
   18.7843   13.8743   40.0147 H   0  0  0  0  0  0  0  0  0  0  0  0
   17.2526   14.8128   40.0147 H   0  0  0  0  0  0  0  0  0  0  0  0
  1  2  1  0
  2  3  2  0
  3  4  1  0
  4  5  1  0
  5  6  2  0
  6  7  1  0
  7  8  2  0
  8  9  1  0
  9 10  1  0
 10 11  1  0
 11 12  1  0
 12 13  1  0
 12 14  2  0
  8 15  1  0
 15 16  2  0
  3 17  1  0
 17 18  2  0
 18 19  1  0
 19 20  1  0
 19  2  1  0
 16  5  1  0
  1 21  1  0
  1 22  1  0
  1 23  1  0
  4 24  1  0
  7 25  1  0
  9 26  1  0
  9 27  1  0
 10 28  1  0
 10 29  1  0
 11 30  1  0
 11 31  1  0
 13 32  1  0
 13 33  1  0
 15 34  1  0
 17 35  1  0
 20 36  1  0
 20 37  1  0
 20 38  1  0
M  END
>  <meeko>  (162) 
{"is_sidechain": false}

>  <vina_energy>  (162) 
-6.98

$$$$

     RDKit          3D

 38 39  0  0  0  0  0  0  0  0999 V2000
   15.6780   13.7920   39.0770 C   0  0  0  0  0  0  0  0  0  0  0  0
   16.2810   12.9450   40.1360 C   0  0  0  0  0  0  0  0  0  0  0  0
   15.8660   11.7660   40.7230 C   0  0  0  0  0  0  0  0  0  0  0  0
   14.7210   11.1120   40.4350 N   0  0  0  0  0  0  0  0  0  0  0  0
   14.0480   10.1090   41.1280 C   0  0  0  0  0  0  0  0  0  0  0  0
   14.4490    9.7030   42.3430 N   0  0  0  0  0  0  0  0  0  0  0  0
   13.7510    8.7310   42.9500 C   0  0  0  0  0  0  0  0  0  0  0  0
   12.6320    8.1430   42.4010 C   0  0  0  0  0  0  0  0  0  0  0  0
   11.8430    7.1070   43.1180 C   0  0  0  0  0  0  0  0  0  0  0  0
   10.5920    7.6660   43.7170 N   0  0  0  0  0  0  0  0  0  0  0  0
   10.4850    7.5140   45.2170 C   0  0  0  0  0  0  0  0  0  0  0  0
    9.2050    6.7630   45.5760 C   0  0  0  0  0  0  0  0  0  0  0  0
    8.4530    7.2500   46.5950 N   0  0  0  0  0  0  0  0  0  0  0  0
    8.8740    5.7700   44.9330 O   0  0  0  0  0  0  0  0  0  0  0  0
   12.2980    8.6140   41.1500 C   0  0  0  0  0  0  0  0  0  0  0  0
   12.9800    9.5820   40.5100 N   0  0  0  0  0  0  0  0  0  0  0  0
   16.8770   11.4460   41.6520 C   0  0  0  0  0  0  0  0  0  0  0  0
   17.8580   12.3500   41.6680 N   0  0  0  0  0  0  0  0  0  0  0  0
   17.4770   13.2510   40.7430 N   0  0  0  0  0  0  0  0  0  0  0  0
   18.3410   14.3760   40.4730 C   0  0  0  0  0  0  0  0  0  0  0  0
   15.0998   14.6041   39.5419 H   0  0  0  0  0  0  0  0  0  0  0  0
   16.4753   14.2207   38.4521 H   0  0  0  0  0  0  0  0  0  0  0  0
   15.0120   13.1789   38.4521 H   0  0  0  0  0  0  0  0  0  0  0  0
   14.1860   11.3420   39.6080 H   0  0  0  0  0  0  0  0  0  0  0  0
   14.0898    8.3853   43.9378 H   0  0  0  0  0  0  0  0  0  0  0  0
   11.5715    6.3129   42.4069 H   0  0  0  0  0  0  0  0  0  0  0  0
   12.4643    6.7149   43.9367 H   0  0  0  0  0  0  0  0  0  0  0  0
    9.7610    7.2880   43.2460 H   0  0  0  0  0  0  0  0  0  0  0  0
   10.5940    8.6860   43.5420 H   0  0  0  0  0  0  0  0  0  0  0  0
   11.3539    6.9513   45.5890 H   0  0  0  0  0  0  0  0  0  0  0  0
   10.4602    8.5115   45.6801 H   0  0  0  0  0  0  0  0  0  0  0  0
    7.6330    6.7090   46.8600 H   0  0  0  0  0  0  0  0  0  0  0  0
    8.7880    7.9020   47.2940 H   0  0  0  0  0  0  0  0  0  0  0  0
   11.4248    8.1742   40.6459 H   0  0  0  0  0  0  0  0  0  0  0  0
   16.8590   10.5514   42.2918 H   0  0  0  0  0  0  0  0  0  0  0  0
   18.6785   14.8155   41.4232 H   0  0  0  0  0  0  0  0  0  0  0  0
   19.2137   14.0377   39.8950 H   0  0  0  0  0  0  0  0  0  0  0  0
   17.7890   15.1318   39.8950 H   0  0  0  0  0  0  0  0  0  0  0  0
  1  2  1  0
  2  3  2  0
  3  4  1  0
  4  5  1  0
  5  6  2  0
  6  7  1  0
  7  8  2  0
  8  9  1  0
  9 10  1  0
 10 11  1  0
 11 12  1  0
 12 13  1  0
 12 14  2  0
  8 15  1  0
 15 16  2  0
  3 17  1  0
 17 18  2  0
 18 19  1  0
 19 20  1  0
 19  2  1  0
 16  5  1  0
  1 21  1  0
  1 22  1  0
  1 23  1  0
  4 24  1  0
  7 25  1  0
  9 26  1  0
  9 27  1  0
 10 28  1  0
 10 29  1  0
 11 30  1  0
 11 31  1  0
 13 32  1  0
 13 33  1  0
 15 34  1  0
 17 35  1  0
 20 36  1  0
 20 37  1  0
 20 38  1  0
M  CHG  1  10   1
M  END
>  <meeko>  (163) 
{"is_sidechain": false}

>  <vina_energy>  (163) 
-6.77

$$$$

     RDKit          3D

 36 37  0  0  0  0  0  0  0  0999 V2000
   15.2010   13.4260   39.3260 C   0  0  0  0  0  0  0  0  0  0  0  0
   15.9710   12.6070   40.2930 C   0  0  0  0  0  0  0  0  0  0  0  0
   15.7160   11.3790   40.8700 C   0  0  0  0  0  0  0  0  0  0  0  0
   14.6250   10.6250   40.6390 N   0  0  0  0  0  0  0  0  0  0  0  0
   14.0300    9.6130   41.3930 C   0  0  0  0  0  0  0  0  0  0  0  0
   13.2070    8.7980   40.7120 N   0  0  0  0  0  0  0  0  0  0  0  0
   12.6180    7.7990   41.4010 C   0  0  0  0  0  0  0  0  0  0  0  0
   12.8190    7.5670   42.7430 C   0  0  0  0  0  0  0  0  0  0  0  0
   12.1320    6.4790   43.5020 C   0  0  0  0  0  0  0  0  0  0  0  0
   10.7600    6.8280   43.6920 O   0  0  0  0  0  0  0  0  0  0  0  0
   10.5330    7.4320   44.9640 C   0  0  0  0  0  0  0  0  0  0  0  0
    9.2540    6.9440   45.6470 C   0  0  0  0  0  0  0  0  0  0  0  0
    8.8650    5.6820   45.3020 N   0  0  0  0  0  0  0  0  0  0  0  0
    8.6020    7.6250   46.4280 O   0  0  0  0  0  0  0  0  0  0  0  0
   13.6640    8.4660   43.3520 C   0  0  0  0  0  0  0  0  0  0  0  0
   14.2760    9.4780   42.7060 N   0  0  0  0  0  0  0  0  0  0  0  0
   16.8190   11.1330   41.7120 C   0  0  0  0  0  0  0  0  0  0  0  0
   17.7160   12.1240   41.6770 N   0  0  0  0  0  0  0  0  0  0  0  0
   17.1870   12.9980   40.8020 N   0  0  0  0  0  0  0  0  0  0  0  0
   17.9080   14.2150   40.5070 C   0  0  0  0  0  0  0  0  0  0  0  0
   14.5473   14.1213   39.8731 H   0  0  0  0  0  0  0  0  0  0  0  0
   15.8966   13.9974   38.6938 H   0  0  0  0  0  0  0  0  0  0  0  0
   14.5879   12.7669   38.6938 H   0  0  0  0  0  0  0  0  0  0  0  0
   14.0770   10.7310   39.7960 H   0  0  0  0  0  0  0  0  0  0  0  0
   11.9356    7.1290   40.8575 H   0  0  0  0  0  0  0  0  0  0  0  0
   12.1966    5.5385   42.9351 H   0  0  0  0  0  0  0  0  0  0  0  0
   12.6177    6.3497   44.4805 H   0  0  0  0  0  0  0  0  0  0  0  0
   11.3873    7.2013   45.6173 H   0  0  0  0  0  0  0  0  0  0  0  0
   10.4197    8.5131   44.7953 H   0  0  0  0  0  0  0  0  0  0  0  0
    8.0350    5.2910   45.7290 H   0  0  0  0  0  0  0  0  0  0  0  0
    9.4410    5.1020   44.7030 H   0  0  0  0  0  0  0  0  0  0  0  0
   13.8511    8.3519   44.4300 H   0  0  0  0  0  0  0  0  0  0  0  0
   16.9295   10.2284   42.3281 H   0  0  0  0  0  0  0  0  0  0  0  0
   18.1989   14.7060   41.4474 H   0  0  0  0  0  0  0  0  0  0  0  0
   18.8097   13.9749   39.9245 H   0  0  0  0  0  0  0  0  0  0  0  0
   17.2643   14.8905   39.9245 H   0  0  0  0  0  0  0  0  0  0  0  0
  1  2  1  0
  2  3  2  0
  3  4  1  0
  4  5  1  0
  5  6  2  0
  6  7  1  0
  7  8  2  0
  8  9  1  0
  9 10  1  0
 10 11  1  0
 11 12  1  0
 12 13  1  0
 12 14  2  0
  8 15  1  0
 15 16  2  0
  3 17  1  0
 17 18  2  0
 18 19  1  0
 19 20  1  0
 19  2  1  0
 16  5  1  0
  1 21  1  0
  1 22  1  0
  1 23  1  0
  4 24  1  0
  7 25  1  0
  9 26  1  0
  9 27  1  0
 11 28  1  0
 11 29  1  0
 13 30  1  0
 13 31  1  0
 15 32  1  0
 17 33  1  0
 20 34  1  0
 20 35  1  0
 20 36  1  0
M  END
>  <meeko>  (164) 
{"is_sidechain": false}

>  <vina_energy>  (164) 
-6.71

$$$$

     RDKit          3D

 36 37  0  0  0  0  0  0  0  0999 V2000
   15.9570   14.0140   39.0320 C   0  0  0  0  0  0  0  0  0  0  0  0
   16.4540   13.1310   40.1170 C   0  0  0  0  0  0  0  0  0  0  0  0
   15.9320   11.9920   40.6940 C   0  0  0  0  0  0  0  0  0  0  0  0
   14.7660   11.4110   40.3480 N   0  0  0  0  0  0  0  0  0  0  0  0
   14.0730   10.3380   40.9070 C   0  0  0  0  0  0  0  0  0  0  0  0
   14.5620    9.8850   42.0740 N   0  0  0  0  0  0  0  0  0  0  0  0
   13.9230    8.8470   42.6500 C   0  0  0  0  0  0  0  0  0  0  0  0
   12.8180    8.2280   42.1090 C   0  0  0  0  0  0  0  0  0  0  0  0
   12.1270    7.0800   42.7690 C   0  0  0  0  0  0  0  0  0  0  0  0
   11.2650    7.6150   44.2850 S   0  0  0  0  0  0  0  0  0  0  0  0
   10.7640    5.9840   44.9210 C   0  0  0  0  0  0  0  0  0  0  0  0
    9.2790    5.9610   45.2100 C   0  0  0  0  0  0  0  0  0  0  0  0
    8.8370    6.8870   46.1120 N   0  0  0  0  0  0  0  0  0  0  0  0
    8.5000    5.1840   44.6660 O   0  0  0  0  0  0  0  0  0  0  0  0
   12.3900    8.7710   40.9190 C   0  0  0  0  0  0  0  0  0  0  0  0
   12.9960    9.8070   40.3060 N   0  0  0  0  0  0  0  0  0  0  0  0
   16.8700   11.6160   41.6770 C   0  0  0  0  0  0  0  0  0  0  0  0
   17.9140   12.4470   41.7270 N   0  0  0  0  0  0  0  0  0  0  0  0
   17.6430   13.3540   40.7700 N   0  0  0  0  0  0  0  0  0  0  0  0
   18.5790   14.4280   40.5360 C   0  0  0  0  0  0  0  0  0  0  0  0
   15.4625   14.8926   39.4719 H   0  0  0  0  0  0  0  0  0  0  0  0
   16.8028   14.3424   38.4101 H   0  0  0  0  0  0  0  0  0  0  0  0
   15.2375   13.4613   38.4101 H   0  0  0  0  0  0  0  0  0  0  0  0
   14.2290   11.7330   39.5540 H   0  0  0  0  0  0  0  0  0  0  0  0
   14.3073    8.4718   43.6100 H   0  0  0  0  0  0  0  0  0  0  0  0
   11.3928    6.6529   42.0701 H   0  0  0  0  0  0  0  0  0  0  0  0
   12.8823    6.3289   43.0435 H   0  0  0  0  0  0  0  0  0  0  0  0
   10.9986    5.2151   44.1702 H   0  0  0  0  0  0  0  0  0  0  0  0
   11.3110    5.7827   45.8539 H   0  0  0  0  0  0  0  0  0  0  0  0
    7.8330    6.9600   46.2230 H   0  0  0  0  0  0  0  0  0  0  0  0
    9.3810    7.7230   46.2890 H   0  0  0  0  0  0  0  0  0  0  0  0
   11.5014    8.3339   40.4402 H   0  0  0  0  0  0  0  0  0  0  0  0
   16.7549   10.7375   42.3290 H   0  0  0  0  0  0  0  0  0  0  0  0
   18.9272   14.8275   41.4999 H   0  0  0  0  0  0  0  0  0  0  0  0
   19.4386   14.0473   39.9649 H   0  0  0  0  0  0  0  0  0  0  0  0
   18.0844   15.2275   39.9649 H   0  0  0  0  0  0  0  0  0  0  0  0
  1  2  1  0
  2  3  2  0
  3  4  1  0
  4  5  1  0
  5  6  2  0
  6  7  1  0
  7  8  2  0
  8  9  1  0
  9 10  1  0
 10 11  1  0
 11 12  1  0
 12 13  1  0
 12 14  2  0
  8 15  1  0
 15 16  2  0
  3 17  1  0
 17 18  2  0
 18 19  1  0
 19 20  1  0
 19  2  1  0
 16  5  1  0
  1 21  1  0
  1 22  1  0
  1 23  1  0
  4 24  1  0
  7 25  1  0
  9 26  1  0
  9 27  1  0
 11 28  1  0
 11 29  1  0
 13 30  1  0
 13 31  1  0
 15 32  1  0
 17 33  1  0
 20 34  1  0
 20 35  1  0
 20 36  1  0
M  END
>  <meeko>  (165) 
{"is_sidechain": false}

>  <vina_energy>  (165) 
-6.33

$$$$

     RDKit          3D

 34 35  0  0  0  0  0  0  0  0999 V2000
   16.3110   10.7910   42.0870 C   0  0  0  0  0  0  0  0  0  0  0  0
   15.0170   10.5950   41.3870 C   0  0  0  0  0  0  0  0  0  0  0  0
   14.0310    9.6380   41.5170 C   0  0  0  0  0  0  0  0  0  0  0  0
   14.0600    8.6070   42.3830 N   0  0  0  0  0  0  0  0  0  0  0  0
   13.0480    8.0060   43.1310 C   0  0  0  0  0  0  0  0  0  0  0  0
   12.1920    8.7320   43.8670 N   0  0  0  0  0  0  0  0  0  0  0  0
   11.2460    8.0620   44.5550 C   0  0  0  0  0  0  0  0  0  0  0  0
   11.1080    6.6940   44.5390 C   0  0  0  0  0  0  0  0  0  0  0  0
   10.0560    5.9770   45.3170 C   0  0  0  0  0  0  0  0  0  0  0  0
    8.8570    6.7730   45.4530 N   0  0  0  0  0  0  0  0  0  0  0  0
    8.7140    7.6460   46.4890 C   0  0  0  0  0  0  0  0  0  0  0  0
    7.4950    8.2410   46.4930 N   0  0  0  0  0  0  0  0  0  0  0  0
    9.5590    7.8950   47.3330 O   0  0  0  0  0  0  0  0  0  0  0  0
   12.0400    6.0390   43.7660 C   0  0  0  0  0  0  0  0  0  0  0  0
   13.0030    6.6650   43.0580 N   0  0  0  0  0  0  0  0  0  0  0  0
   13.0470    9.9950   40.5730 C   0  0  0  0  0  0  0  0  0  0  0  0
   13.3750   11.0950   39.8870 N   0  0  0  0  0  0  0  0  0  0  0  0
   14.5750   11.4350   40.3930 N   0  0  0  0  0  0  0  0  0  0  0  0
   15.2480   12.6030   39.8740 C   0  0  0  0  0  0  0  0  0  0  0  0
   16.1471   10.7662   43.1744 H   0  0  0  0  0  0  0  0  0  0  0  0
   17.0070    9.9880   41.8027 H   0  0  0  0  0  0  0  0  0  0  0  0
   16.7380   11.7641   41.8027 H   0  0  0  0  0  0  0  0  0  0  0  0
   14.9190    8.1160   42.5950 H   0  0  0  0  0  0  0  0  0  0  0  0
   10.5416    8.6451   45.1664 H   0  0  0  0  0  0  0  0  0  0  0  0
    9.8051    5.0400   44.7982 H   0  0  0  0  0  0  0  0  0  0  0  0
   10.4507    5.7761   46.3239 H   0  0  0  0  0  0  0  0  0  0  0  0
    7.9920    6.3800   45.1090 H   0  0  0  0  0  0  0  0  0  0  0  0
    7.1380    8.5110   45.5880 H   0  0  0  0  0  0  0  0  0  0  0  0
    7.4280    8.9750   47.1890 H   0  0  0  0  0  0  0  0  0  0  0  0
   11.9971    4.9407   43.7230 H   0  0  0  0  0  0  0  0  0  0  0  0
   12.1146    9.4323   40.4181 H   0  0  0  0  0  0  0  0  0  0  0  0
   15.6049   13.2223   40.7101 H   0  0  0  0  0  0  0  0  0  0  0  0
   16.1040   12.2897   39.2583 H   0  0  0  0  0  0  0  0  0  0  0  0
   14.5476   13.1865   39.2583 H   0  0  0  0  0  0  0  0  0  0  0  0
  1  2  1  0
  2  3  2  0
  3  4  1  0
  4  5  1  0
  5  6  2  0
  6  7  1  0
  7  8  2  0
  8  9  1  0
  9 10  1  0
 10 11  1  0
 11 12  1  0
 11 13  2  0
  8 14  1  0
 14 15  2  0
  3 16  1  0
 16 17  2  0
 17 18  1  0
 18 19  1  0
 18  2  1  0
 15  5  1  0
  1 20  1  0
  1 21  1  0
  1 22  1  0
  4 23  1  0
  7 24  1  0
  9 25  1  0
  9 26  1  0
 10 27  1  0
 12 28  1  0
 12 29  1  0
 14 30  1  0
 16 31  1  0
 19 32  1  0
 19 33  1  0
 19 34  1  0
M  END
>  <meeko>  (166) 
{"is_sidechain": false}

>  <vina_energy>  (166) 
-8.00

$$$$

     RDKit          3D

 37 38  0  0  0  0  0  0  0  0999 V2000
   16.3940   11.3380   42.0420 C   0  0  0  0  0  0  0  0  0  0  0  0
   15.1420   10.9570   41.3430 C   0  0  0  0  0  0  0  0  0  0  0  0
   14.1900    9.9940   41.6100 C   0  0  0  0  0  0  0  0  0  0  0  0
   14.2180    9.1440   42.6540 N   0  0  0  0  0  0  0  0  0  0  0  0
   13.3110    8.1650   43.0650 C   0  0  0  0  0  0  0  0  0  0  0  0
   12.0200    8.5410   43.0500 N   0  0  0  0  0  0  0  0  0  0  0  0
   11.1080    7.6270   43.4360 C   0  0  0  0  0  0  0  0  0  0  0  0
   11.4250    6.3510   43.8410 C   0  0  0  0  0  0  0  0  0  0  0  0
   10.3930    5.3370   44.2280 C   0  0  0  0  0  0  0  0  0  0  0  0
    9.9600    5.4640   45.6950 C   0  0  0  0  0  0  0  0  0  0  0  0
    8.8460    6.3710   45.9000 N   0  0  0  0  0  0  0  0  0  0  0  0
    9.0370    7.5920   46.4740 C   0  0  0  0  0  0  0  0  0  0  0  0
    7.8990    8.3310   46.4900 N   0  0  0  0  0  0  0  0  0  0  0  0
   10.0850    8.0040   46.9430 O   0  0  0  0  0  0  0  0  0  0  0  0
   12.7700    6.0640   43.8180 C   0  0  0  0  0  0  0  0  0  0  0  0
   13.7180    6.9420   43.4370 N   0  0  0  0  0  0  0  0  0  0  0  0
   13.2410   10.1220   40.5760 C   0  0  0  0  0  0  0  0  0  0  0  0
   13.5550   11.0940   39.7140 N   0  0  0  0  0  0  0  0  0  0  0  0
   14.7090   11.5860   40.1990 N   0  0  0  0  0  0  0  0  0  0  0  0
   15.3580   12.6720   39.5020 C   0  0  0  0  0  0  0  0  0  0  0  0
   16.2360   11.2899   43.1295 H   0  0  0  0  0  0  0  0  0  0  0  0
   17.1986   10.6440   41.7574 H   0  0  0  0  0  0  0  0  0  0  0  0
   16.6757   12.3625   41.7574 H   0  0  0  0  0  0  0  0  0  0  0  0
   14.9850    9.1360   43.3110 H   0  0  0  0  0  0  0  0  0  0  0  0
   10.0474    7.9184   43.4267 H   0  0  0  0  0  0  0  0  0  0  0  0
    9.5092    5.4719   43.5871 H   0  0  0  0  0  0  0  0  0  0  0  0
   10.8407    4.3406   44.0984 H   0  0  0  0  0  0  0  0  0  0  0  0
    9.6674    4.4676   46.0578 H   0  0  0  0  0  0  0  0  0  0  0  0
   10.8164    5.8782   46.2473 H   0  0  0  0  0  0  0  0  0  0  0  0
    8.1110    6.3580   45.2050 H   0  0  0  0  0  0  0  0  0  0  0  0
    7.0470    7.8220   46.6850 H   0  0  0  0  0  0  0  0  0  0  0  0
    7.9960    9.1850   47.0250 H   0  0  0  0  0  0  0  0  0  0  0  0
   13.0903    5.0586   44.1289 H   0  0  0  0  0  0  0  0  0  0  0  0
   12.3430    9.4928   40.4882 H   0  0  0  0  0  0  0  0  0  0  0  0
   15.7795   13.3773   40.2334 H   0  0  0  0  0  0  0  0  0  0  0  0
   16.1654   12.2722   38.8709 H   0  0  0  0  0  0  0  0  0  0  0  0
   14.6234   13.1936   38.8709 H   0  0  0  0  0  0  0  0  0  0  0  0
  1  2  1  0
  2  3  2  0
  3  4  1  0
  4  5  1  0
  5  6  2  0
  6  7  1  0
  7  8  2  0
  8  9  1  0
  9 10  1  0
 10 11  1  0
 11 12  1  0
 12 13  1  0
 12 14  2  0
  8 15  1  0
 15 16  2  0
  3 17  1  0
 17 18  2  0
 18 19  1  0
 19 20  1  0
 19  2  1  0
 16  5  1  0
  1 21  1  0
  1 22  1  0
  1 23  1  0
  4 24  1  0
  7 25  1  0
  9 26  1  0
  9 27  1  0
 10 28  1  0
 10 29  1  0
 11 30  1  0
 13 31  1  0
 13 32  1  0
 15 33  1  0
 17 34  1  0
 20 35  1  0
 20 36  1  0
 20 37  1  0
M  END
>  <meeko>  (167) 
{"is_sidechain": false}

>  <vina_energy>  (167) 
-7.01

$$$$

     RDKit          3D

 33 34  0  0  0  0  0  0  0  0999 V2000
   16.5580   11.1950   41.9610 C   0  0  0  0  0  0  0  0  0  0  0  0
   15.2800   10.9310   41.2530 C   0  0  0  0  0  0  0  0  0  0  0  0
   14.3230    9.9490   41.4060 C   0  0  0  0  0  0  0  0  0  0  0  0
   14.3710    8.9540   42.3120 N   0  0  0  0  0  0  0  0  0  0  0  0
   13.3560    8.2360   42.9430 C   0  0  0  0  0  0  0  0  0  0  0  0
   13.3290    6.8930   42.9290 N   0  0  0  0  0  0  0  0  0  0  0  0
   12.3100    6.2850   43.5670 C   0  0  0  0  0  0  0  0  0  0  0  0
   11.3100    6.9570   44.2290 C   0  0  0  0  0  0  0  0  0  0  0  0
   10.1730    6.2570   44.8990 C   0  0  0  0  0  0  0  0  0  0  0  0
    9.1210    7.1980   45.1320 O   0  0  0  0  0  0  0  0  0  0  0  0
    8.9920    7.5460   46.4310 C   0  0  0  0  0  0  0  0  0  0  0  0
    7.7710    7.1920   46.8850 N   0  0  0  0  0  0  0  0  0  0  0  0
    9.8350    8.1030   47.1140 O   0  0  0  0  0  0  0  0  0  0  0  0
   11.4190    8.3280   44.1790 C   0  0  0  0  0  0  0  0  0  0  0  0
   12.4200    8.9820   43.5540 N   0  0  0  0  0  0  0  0  0  0  0  0
   13.3450   10.2350   40.4330 C   0  0  0  0  0  0  0  0  0  0  0  0
   13.6480   11.3180   39.7110 N   0  0  0  0  0  0  0  0  0  0  0  0
   14.8200   11.7250   40.2290 N   0  0  0  0  0  0  0  0  0  0  0  0
   15.4600   12.8990   39.6800 C   0  0  0  0  0  0  0  0  0  0  0  0
   16.3893   11.1601   43.0474 H   0  0  0  0  0  0  0  0  0  0  0  0
   17.2975   10.4307   41.6801 H   0  0  0  0  0  0  0  0  0  0  0  0
   16.9341   12.1898   41.6801 H   0  0  0  0  0  0  0  0  0  0  0  0
   15.2510    8.5960   42.6600 H   0  0  0  0  0  0  0  0  0  0  0  0
   12.2762    5.1856   43.5577 H   0  0  0  0  0  0  0  0  0  0  0  0
    9.8063    5.4461   44.2525 H   0  0  0  0  0  0  0  0  0  0  0  0
   10.5099    5.8308   45.8555 H   0  0  0  0  0  0  0  0  0  0  0  0
    7.5080    7.4490   47.8250 H   0  0  0  0  0  0  0  0  0  0  0  0
    7.0870    6.8090   46.2510 H   0  0  0  0  0  0  0  0  0  0  0  0
   10.6432    8.9267   44.6787 H   0  0  0  0  0  0  0  0  0  0  0  0
   12.4352    9.6349   40.2844 H   0  0  0  0  0  0  0  0  0  0  0  0
   15.8109   13.5427   40.5001 H   0  0  0  0  0  0  0  0  0  0  0  0
   16.3167   12.5940   39.0610 H   0  0  0  0  0  0  0  0  0  0  0  0
   14.7395   13.4538   39.0610 H   0  0  0  0  0  0  0  0  0  0  0  0
  1  2  1  0
  2  3  2  0
  3  4  1  0
  4  5  1  0
  5  6  2  0
  6  7  1  0
  7  8  2  0
  8  9  1  0
  9 10  1  0
 10 11  1  0
 11 12  1  0
 11 13  2  0
  8 14  1  0
 14 15  2  0
  3 16  1  0
 16 17  2  0
 17 18  1  0
 18 19  1  0
 18  2  1  0
 15  5  1  0
  1 20  1  0
  1 21  1  0
  1 22  1  0
  4 23  1  0
  7 24  1  0
  9 25  1  0
  9 26  1  0
 12 27  1  0
 12 28  1  0
 14 29  1  0
 16 30  1  0
 19 31  1  0
 19 32  1  0
 19 33  1  0
M  END
>  <meeko>  (168) 
{"is_sidechain": false}

>  <vina_energy>  (168) 
-7.39

$$$$

     RDKit          3D

 36 37  0  0  0  0  0  0  0  0999 V2000
   16.4200   11.3020   42.0180 C   0  0  0  0  0  0  0  0  0  0  0  0
   15.1590   10.9670   41.3120 C   0  0  0  0  0  0  0  0  0  0  0  0
   14.2050    9.9950   41.5380 C   0  0  0  0  0  0  0  0  0  0  0  0
   14.2460    9.0820   42.5280 N   0  0  0  0  0  0  0  0  0  0  0  0
   13.2940    8.1640   42.9710 C   0  0  0  0  0  0  0  0  0  0  0  0
   11.9790    8.4190   42.8870 N   0  0  0  0  0  0  0  0  0  0  0  0
   11.1350    7.4730   43.3380 C   0  0  0  0  0  0  0  0  0  0  0  0
   11.5430    6.2750   43.8810 C   0  0  0  0  0  0  0  0  0  0  0  0
   10.5790    5.2310   44.3540 C   0  0  0  0  0  0  0  0  0  0  0  0
    9.9230    5.6010   45.6830 C   0  0  0  0  0  0  0  0  0  0  0  0
    8.8370    6.5070   45.4350 O   0  0  0  0  0  0  0  0  0  0  0  0
    8.8520    7.6070   46.2210 C   0  0  0  0  0  0  0  0  0  0  0  0
   10.0830    7.7770   46.7520 N   0  0  0  0  0  0  0  0  0  0  0  0
    7.9130    8.3570   46.4310 O   0  0  0  0  0  0  0  0  0  0  0  0
   12.9090    6.1050   43.9190 C   0  0  0  0  0  0  0  0  0  0  0  0
   13.7920    7.0230   43.4790 N   0  0  0  0  0  0  0  0  0  0  0  0
   13.2380   10.1900   40.5310 C   0  0  0  0  0  0  0  0  0  0  0  0
   13.5460   11.2060   39.7200 N   0  0  0  0  0  0  0  0  0  0  0  0
   14.7170   11.6560   40.2070 N   0  0  0  0  0  0  0  0  0  0  0  0
   15.3600   12.7780   39.5630 C   0  0  0  0  0  0  0  0  0  0  0  0
   16.2547   11.2581   43.1046 H   0  0  0  0  0  0  0  0  0  0  0  0
   17.2008   10.5801   41.7364 H   0  0  0  0  0  0  0  0  0  0  0  0
   16.7396   12.3162   41.7364 H   0  0  0  0  0  0  0  0  0  0  0  0
   15.0700    8.9590   43.1000 H   0  0  0  0  0  0  0  0  0  0  0  0
   10.0547    7.6682   43.2688 H   0  0  0  0  0  0  0  0  0  0  0  0
    9.7927    5.1068   43.5948 H   0  0  0  0  0  0  0  0  0  0  0  0
   11.1433    4.2993   44.5073 H   0  0  0  0  0  0  0  0  0  0  0  0
    9.5404    4.6922   46.1705 H   0  0  0  0  0  0  0  0  0  0  0  0
   10.6629    6.0808   46.3405 H   0  0  0  0  0  0  0  0  0  0  0  0
   10.2680    8.6310   47.2570 H   0  0  0  0  0  0  0  0  0  0  0  0
   10.8470    7.2160   46.4130 H   0  0  0  0  0  0  0  0  0  0  0  0
   13.3024    5.1648   44.3327 H   0  0  0  0  0  0  0  0  0  0  0  0
   12.3321    9.5751   40.4249 H   0  0  0  0  0  0  0  0  0  0  0  0
   15.7531   13.4639   40.3279 H   0  0  0  0  0  0  0  0  0  0  0  0
   16.1875   12.4156   38.9354 H   0  0  0  0  0  0  0  0  0  0  0  0
   14.6290   13.3088   38.9354 H   0  0  0  0  0  0  0  0  0  0  0  0
  1  2  1  0
  2  3  2  0
  3  4  1  0
  4  5  1  0
  5  6  2  0
  6  7  1  0
  7  8  2  0
  8  9  1  0
  9 10  1  0
 10 11  1  0
 11 12  1  0
 12 13  1  0
 12 14  2  0
  8 15  1  0
 15 16  2  0
  3 17  1  0
 17 18  2  0
 18 19  1  0
 19 20  1  0
 19  2  1  0
 16  5  1  0
  1 21  1  0
  1 22  1  0
  1 23  1  0
  4 24  1  0
  7 25  1  0
  9 26  1  0
  9 27  1  0
 10 28  1  0
 10 29  1  0
 13 30  1  0
 13 31  1  0
 15 32  1  0
 17 33  1  0
 20 34  1  0
 20 35  1  0
 20 36  1  0
M  END
>  <meeko>  (169) 
{"is_sidechain": false}

>  <vina_energy>  (169) 
-6.73

$$$$

     RDKit          3D

 33 34  0  0  0  0  0  0  0  0999 V2000
   14.3910   11.9310   39.9300 C   0  0  0  0  0  0  0  0  0  0  0  0
   15.1750   11.2620   40.9960 C   0  0  0  0  0  0  0  0  0  0  0  0
   14.9530   10.1110   41.7230 C   0  0  0  0  0  0  0  0  0  0  0  0
   13.8820    9.3030   41.5910 N   0  0  0  0  0  0  0  0  0  0  0  0
   13.1600    8.5730   42.5340 C   0  0  0  0  0  0  0  0  0  0  0  0
   12.5820    9.1650   43.5910 N   0  0  0  0  0  0  0  0  0  0  0  0
   11.9050    8.3800   44.4520 C   0  0  0  0  0  0  0  0  0  0  0  0
   11.7750    7.0180   44.3040 C   0  0  0  0  0  0  0  0  0  0  0  0
   11.0310    6.1720   45.2820 C   0  0  0  0  0  0  0  0  0  0  0  0
    9.2740    6.1960   44.9020 S   0  0  0  0  0  0  0  0  0  0  0  0
    8.5910    6.9300   46.2430 N   0  0  0  0  0  0  0  0  0  0  0  0
    8.7560    4.8480   44.8770 O   0  0  0  0  0  0  0  0  0  0  0  0
    9.0460    7.1150   43.8090 O   0  0  0  0  0  0  0  0  0  0  0  0
   12.4120    6.5020   43.1960 C   0  0  0  0  0  0  0  0  0  0  0  0
   13.0950    7.2510   42.3090 N   0  0  0  0  0  0  0  0  0  0  0  0
   16.0630   10.0000   42.5850 C   0  0  0  0  0  0  0  0  0  0  0  0
   16.9320   11.0030   42.4260 N   0  0  0  0  0  0  0  0  0  0  0  0
   16.3700   11.7570   41.4630 N   0  0  0  0  0  0  0  0  0  0  0  0
   17.0490   12.9550   41.0250 C   0  0  0  0  0  0  0  0  0  0  0  0
   13.6300   12.5804   40.3873 H   0  0  0  0  0  0  0  0  0  0  0  0
   15.0637   12.5377   39.3060 H   0  0  0  0  0  0  0  0  0  0  0  0
   13.8977   11.1712   39.3060 H   0  0  0  0  0  0  0  0  0  0  0  0
   13.4570    9.1330   40.6900 H   0  0  0  0  0  0  0  0  0  0  0  0
   11.4292    8.8549   45.3227 H   0  0  0  0  0  0  0  0  0  0  0  0
   11.4020    5.1380   45.2258 H   0  0  0  0  0  0  0  0  0  0  0  0
   11.1871    6.5691   46.2959 H   0  0  0  0  0  0  0  0  0  0  0  0
    7.8860    7.6150   45.9580 H   0  0  0  0  0  0  0  0  0  0  0  0
    9.3180    7.3270   46.8410 H   0  0  0  0  0  0  0  0  0  0  0  0
   12.3596    5.4164   43.0264 H   0  0  0  0  0  0  0  0  0  0  0  0
   16.1985    9.1809   43.3066 H   0  0  0  0  0  0  0  0  0  0  0  0
   17.3763   13.5325   41.9022 H   0  0  0  0  0  0  0  0  0  0  0  0
   17.9252   12.6794   40.4197 H   0  0  0  0  0  0  0  0  0  0  0  0
   16.3624   13.5651   40.4197 H   0  0  0  0  0  0  0  0  0  0  0  0
  1  2  1  0
  2  3  2  0
  3  4  1  0
  4  5  1  0
  5  6  2  0
  6  7  1  0
  7  8  2  0
  8  9  1  0
  9 10  1  0
 10 11  1  0
 10 12  2  0
 10 13  2  0
  8 14  1  0
 14 15  2  0
  3 16  1  0
 16 17  2  0
 17 18  1  0
 18 19  1  0
 18  2  1  0
 15  5  1  0
  1 20  1  0
  1 21  1  0
  1 22  1  0
  4 23  1  0
  7 24  1  0
  9 25  1  0
  9 26  1  0
 11 27  1  0
 11 28  1  0
 14 29  1  0
 16 30  1  0
 19 31  1  0
 19 32  1  0
 19 33  1  0
M  END
>  <meeko>  (170) 
{"is_sidechain": false}

>  <vina_energy>  (170) 
-7.42

$$$$

     RDKit          3D

 39 40  0  0  0  0  0  0  0  0999 V2000
   15.8300   13.9870   38.9760 C   0  0  0  0  0  0  0  0  0  0  0  0
   16.3790   13.1410   40.0650 C   0  0  0  0  0  0  0  0  0  0  0  0
   15.9010   12.0030   40.6820 C   0  0  0  0  0  0  0  0  0  0  0  0
   14.7380   11.3910   40.3870 N   0  0  0  0  0  0  0  0  0  0  0  0
   14.1140   10.2810   40.9570 C   0  0  0  0  0  0  0  0  0  0  0  0
   13.1020    9.6490   40.3410 N   0  0  0  0  0  0  0  0  0  0  0  0
   12.5660    8.5830   40.9640 C   0  0  0  0  0  0  0  0  0  0  0  0
   12.9960    8.1140   42.1850 C   0  0  0  0  0  0  0  0  0  0  0  0
   12.4080    6.9060   42.8450 C   0  0  0  0  0  0  0  0  0  0  0  0
   11.7850    7.2560   44.2020 C   0  0  0  0  0  0  0  0  0  0  0  0
   10.2610    7.3160   44.1590 C   0  0  0  0  0  0  0  0  0  0  0  0
    9.4550    6.1770   45.2830 S   0  0  0  0  0  0  0  0  0  0  0  0
    8.5860    7.2070   46.2780 N   0  0  0  0  0  0  0  0  0  0  0  0
    8.4700    5.3910   44.5800 O   0  0  0  0  0  0  0  0  0  0  0  0
   10.4510    5.5740   46.1370 O   0  0  0  0  0  0  0  0  0  0  0  0
   14.0380    8.8270   42.7340 C   0  0  0  0  0  0  0  0  0  0  0  0
   14.6060    9.8990   42.1480 N   0  0  0  0  0  0  0  0  0  0  0  0
   16.8800   11.6670   41.6390 C   0  0  0  0  0  0  0  0  0  0  0  0
   17.9050   12.5240   41.6400 N   0  0  0  0  0  0  0  0  0  0  0  0
   17.5800   13.4070   40.6790 N   0  0  0  0  0  0  0  0  0  0  0  0
   18.4820   14.5000   40.3920 C   0  0  0  0  0  0  0  0  0  0  0  0
   15.2802   14.8343   39.4117 H   0  0  0  0  0  0  0  0  0  0  0  0
   16.6549   14.3658   38.3546 H   0  0  0  0  0  0  0  0  0  0  0  0
   15.1481   13.3879   38.3546 H   0  0  0  0  0  0  0  0  0  0  0  0
   14.1330   11.7290   39.6500 H   0  0  0  0  0  0  0  0  0  0  0  0
   11.7367    8.0562   40.4692 H   0  0  0  0  0  0  0  0  0  0  0  0
   11.6294    6.4849   42.1919 H   0  0  0  0  0  0  0  0  0  0  0  0
   13.2142    6.1766   43.0125 H   0  0  0  0  0  0  0  0  0  0  0  0
   12.0855    6.4915   44.9336 H   0  0  0  0  0  0  0  0  0  0  0  0
   12.1465    8.2563   44.4826 H   0  0  0  0  0  0  0  0  0  0  0  0
    9.9476    8.3380   44.4185 H   0  0  0  0  0  0  0  0  0  0  0  0
    9.9596    7.0260   43.1416 H   0  0  0  0  0  0  0  0  0  0  0  0
    7.8880    6.6780   46.8060 H   0  0  0  0  0  0  0  0  0  0  0  0
    8.1800    7.9690   45.7300 H   0  0  0  0  0  0  0  0  0  0  0  0
   14.4301    8.5021   43.7090 H   0  0  0  0  0  0  0  0  0  0  0  0
   16.8082   10.7976   42.3091 H   0  0  0  0  0  0  0  0  0  0  0  0
   18.8418   14.9359   41.3357 H   0  0  0  0  0  0  0  0  0  0  0  0
   19.3379   14.1261   39.8110 H   0  0  0  0  0  0  0  0  0  0  0  0
   17.9525   15.2695   39.8110 H   0  0  0  0  0  0  0  0  0  0  0  0
  1  2  1  0
  2  3  2  0
  3  4  1  0
  4  5  1  0
  5  6  2  0
  6  7  1  0
  7  8  2  0
  8  9  1  0
  9 10  1  0
 10 11  1  0
 11 12  1  0
 12 13  1  0
 12 14  2  0
 12 15  2  0
  8 16  1  0
 16 17  2  0
  3 18  1  0
 18 19  2  0
 19 20  1  0
 20 21  1  0
 20  2  1  0
 17  5  1  0
  1 22  1  0
  1 23  1  0
  1 24  1  0
  4 25  1  0
  7 26  1  0
  9 27  1  0
  9 28  1  0
 10 29  1  0
 10 30  1  0
 11 31  1  0
 11 32  1  0
 13 33  1  0
 13 34  1  0
 16 35  1  0
 18 36  1  0
 21 37  1  0
 21 38  1  0
 21 39  1  0
M  END
>  <meeko>  (171) 
{"is_sidechain": false}

>  <vina_energy>  (171) 
-7.00

$$$$

     RDKit          3D

 35 36  0  0  0  0  0  0  0  0999 V2000
   16.3950   10.4010   42.0990 C   0  0  0  0  0  0  0  0  0  0  0  0
   15.8590   11.4120   41.1540 C   0  0  0  0  0  0  0  0  0  0  0  0
   14.7550   11.4130   40.3270 C   0  0  0  0  0  0  0  0  0  0  0  0
   13.8710   10.4020   40.2130 N   0  0  0  0  0  0  0  0  0  0  0  0
   13.3430    9.5330   41.1670 C   0  0  0  0  0  0  0  0  0  0  0  0
   13.2230    8.2520   40.7750 N   0  0  0  0  0  0  0  0  0  0  0  0
   12.7180    7.3760   41.6660 C   0  0  0  0  0  0  0  0  0  0  0  0
   12.3300    7.7160   42.9420 C   0  0  0  0  0  0  0  0  0  0  0  0
   11.7560    6.7290   43.9070 C   0  0  0  0  0  0  0  0  0  0  0  0
   10.3200    6.9410   44.1070 N   0  0  0  0  0  0  0  0  0  0  0  0
    9.5610    5.9840   45.2260 S   0  0  0  0  0  0  0  0  0  0  0  0
    8.7840    7.1790   46.0860 N   0  0  0  0  0  0  0  0  0  0  0  0
   10.5210    5.3800   46.1080 O   0  0  0  0  0  0  0  0  0  0  0  0
    8.5170    5.2590   44.5520 O   0  0  0  0  0  0  0  0  0  0  0  0
   12.4840    9.0490   43.2450 C   0  0  0  0  0  0  0  0  0  0  0  0
   12.9850    9.9610   42.3870 N   0  0  0  0  0  0  0  0  0  0  0  0
   14.7860   12.6610   39.6720 C   0  0  0  0  0  0  0  0  0  0  0  0
   15.8280   13.4060   40.0510 N   0  0  0  0  0  0  0  0  0  0  0  0
   16.4610   12.6330   40.9520 N   0  0  0  0  0  0  0  0  0  0  0  0
   17.6600   13.1290   41.5840 C   0  0  0  0  0  0  0  0  0  0  0  0
   16.2181   10.7347   43.1321 H   0  0  0  0  0  0  0  0  0  0  0  0
   15.8886    9.4388   41.9327 H   0  0  0  0  0  0  0  0  0  0  0  0
   17.4756   10.2802   41.9327 H   0  0  0  0  0  0  0  0  0  0  0  0
   13.4650   10.1530   39.3210 H   0  0  0  0  0  0  0  0  0  0  0  0
   12.6094    6.3265   41.3548 H   0  0  0  0  0  0  0  0  0  0  0  0
   11.9156    5.7134   43.5158 H   0  0  0  0  0  0  0  0  0  0  0  0
   12.2610    6.8616   44.8752 H   0  0  0  0  0  0  0  0  0  0  0  0
   10.0090    7.9080   44.1480 H   0  0  0  0  0  0  0  0  0  0  0  0
    7.8410    6.8510   46.3050 H   0  0  0  0  0  0  0  0  0  0  0  0
    8.7310    8.0170   45.5060 H   0  0  0  0  0  0  0  0  0  0  0  0
   12.1808    9.3910   44.2455 H   0  0  0  0  0  0  0  0  0  0  0  0
   14.0378   12.9843   38.9334 H   0  0  0  0  0  0  0  0  0  0  0  0
   17.5450   13.0814   42.6769 H   0  0  0  0  0  0  0  0  0  0  0  0
   18.5178   12.5119   41.2784 H   0  0  0  0  0  0  0  0  0  0  0  0
   17.8311   14.1717   41.2784 H   0  0  0  0  0  0  0  0  0  0  0  0
  1  2  1  0
  2  3  2  0
  3  4  1  0
  4  5  1  0
  5  6  2  0
  6  7  1  0
  7  8  2  0
  8  9  1  0
  9 10  1  0
 10 11  1  0
 11 12  1  0
 11 13  2  0
 11 14  2  0
  8 15  1  0
 15 16  2  0
  3 17  1  0
 17 18  2  0
 18 19  1  0
 19 20  1  0
 19  2  1  0
 16  5  1  0
  1 21  1  0
  1 22  1  0
  1 23  1  0
  4 24  1  0
  7 25  1  0
  9 26  1  0
  9 27  1  0
 10 28  1  0
 12 29  1  0
 12 30  1  0
 15 31  1  0
 17 32  1  0
 20 33  1  0
 20 34  1  0
 20 35  1  0
M  END
>  <meeko>  (172) 
{"is_sidechain": false}

>  <vina_energy>  (172) 
-6.96

$$$$

     RDKit          3D

 38 39  0  0  0  0  0  0  0  0999 V2000
   15.9800   13.9570   38.9840 C   0  0  0  0  0  0  0  0  0  0  0  0
   16.4670   13.1100   40.1000 C   0  0  0  0  0  0  0  0  0  0  0  0
   15.9610   11.9660   40.6840 C   0  0  0  0  0  0  0  0  0  0  0  0
   14.8230   11.3470   40.3160 N   0  0  0  0  0  0  0  0  0  0  0  0
   14.0950   10.3270   40.9270 C   0  0  0  0  0  0  0  0  0  0  0  0
   14.6180    9.8550   42.0720 N   0  0  0  0  0  0  0  0  0  0  0  0
   13.9480    8.8670   42.6960 C   0  0  0  0  0  0  0  0  0  0  0  0
   12.7670    8.3300   42.2360 C   0  0  0  0  0  0  0  0  0  0  0  0
   12.0020    7.2860   42.9910 C   0  0  0  0  0  0  0  0  0  0  0  0
   11.4700    7.8210   44.3240 C   0  0  0  0  0  0  0  0  0  0  0  0
   10.0010    7.6490   44.3790 N   0  0  0  0  0  0  0  0  0  0  0  0
    9.4020    6.4170   45.3340 S   0  0  0  0  0  0  0  0  0  0  0  0
    8.5060    7.3370   46.3680 N   0  0  0  0  0  0  0  0  0  0  0  0
    8.5130    5.6220   44.5290 O   0  0  0  0  0  0  0  0  0  0  0  0
   10.5220    5.8810   46.0590 O   0  0  0  0  0  0  0  0  0  0  0  0
   12.3100    8.8840   41.0620 C   0  0  0  0  0  0  0  0  0  0  0  0
   12.9470    9.8700   40.4030 N   0  0  0  0  0  0  0  0  0  0  0  0
   16.8830   11.6330   41.6960 C   0  0  0  0  0  0  0  0  0  0  0  0
   17.9020   12.4950   41.7610 N   0  0  0  0  0  0  0  0  0  0  0  0
   17.6260   13.3840   40.7890 N   0  0  0  0  0  0  0  0  0  0  0  0
   18.5350   14.4850   40.5670 C   0  0  0  0  0  0  0  0  0  0  0  0
   15.4707   14.8428   39.3913 H   0  0  0  0  0  0  0  0  0  0  0  0
   16.8327   14.2758   38.3666 H   0  0  0  0  0  0  0  0  0  0  0  0
   15.2755   13.3805   38.3666 H   0  0  0  0  0  0  0  0  0  0  0  0
   14.3330   11.6030   39.4690 H   0  0  0  0  0  0  0  0  0  0  0  0
   14.3699    8.4652   43.6291 H   0  0  0  0  0  0  0  0  0  0  0  0
   11.1523    6.9536   42.3765 H   0  0  0  0  0  0  0  0  0  0  0  0
   12.6854    6.4515   43.2066 H   0  0  0  0  0  0  0  0  0  0  0  0
   11.9345    7.2661   45.1524 H   0  0  0  0  0  0  0  0  0  0  0  0
   11.7156    8.8896   44.4121 H   0  0  0  0  0  0  0  0  0  0  0  0
    9.5130    8.5100   44.6360 H   0  0  0  0  0  0  0  0  0  0  0  0
    7.9460    6.7870   47.0170 H   0  0  0  0  0  0  0  0  0  0  0  0
    8.9830    8.1440   46.7560 H   0  0  0  0  0  0  0  0  0  0  0  0
   11.3708    8.4992   40.6380 H   0  0  0  0  0  0  0  0  0  0  0  0
   16.7760   10.7613   42.3583 H   0  0  0  0  0  0  0  0  0  0  0  0
   18.8671   14.8873   41.5354 H   0  0  0  0  0  0  0  0  0  0  0  0
   19.4075   14.1311   39.9983 H   0  0  0  0  0  0  0  0  0  0  0  0
   18.0224   15.2748   39.9983 H   0  0  0  0  0  0  0  0  0  0  0  0
  1  2  1  0
  2  3  2  0
  3  4  1  0
  4  5  1  0
  5  6  2  0
  6  7  1  0
  7  8  2  0
  8  9  1  0
  9 10  1  0
 10 11  1  0
 11 12  1  0
 12 13  1  0
 12 14  2  0
 12 15  2  0
  8 16  1  0
 16 17  2  0
  3 18  1  0
 18 19  2  0
 19 20  1  0
 20 21  1  0
 20  2  1  0
 17  5  1  0
  1 22  1  0
  1 23  1  0
  1 24  1  0
  4 25  1  0
  7 26  1  0
  9 27  1  0
  9 28  1  0
 10 29  1  0
 10 30  1  0
 11 31  1  0
 13 32  1  0
 13 33  1  0
 16 34  1  0
 18 35  1  0
 21 36  1  0
 21 37  1  0
 21 38  1  0
M  END
>  <meeko>  (173) 
{"is_sidechain": false}

>  <vina_energy>  (173) 
-7.21

$$$$

     RDKit          3D

 34 35  0  0  0  0  0  0  0  0999 V2000
   14.9960   13.0940   39.6450 C   0  0  0  0  0  0  0  0  0  0  0  0
   15.7350   12.2190   40.5890 C   0  0  0  0  0  0  0  0  0  0  0  0
   15.4140   11.0070   41.1640 C   0  0  0  0  0  0  0  0  0  0  0  0
   14.2610   10.3370   40.9640 N   0  0  0  0  0  0  0  0  0  0  0  0
   13.6760    9.2870   41.6740 C   0  0  0  0  0  0  0  0  0  0  0  0
   13.2300    8.2670   40.9230 N   0  0  0  0  0  0  0  0  0  0  0  0
   12.6460    7.2330   41.5640 C   0  0  0  0  0  0  0  0  0  0  0  0
   12.4880    7.1640   42.9290 C   0  0  0  0  0  0  0  0  0  0  0  0
   11.8240    6.0370   43.6560 C   0  0  0  0  0  0  0  0  0  0  0  0
   11.3830    6.4420   44.9380 O   0  0  0  0  0  0  0  0  0  0  0  0
    9.7890    6.6490   45.1210 S   0  0  0  0  0  0  0  0  0  0  0  0
    9.2120    5.0910   45.2790 N   0  0  0  0  0  0  0  0  0  0  0  0
    9.5430    7.2920   46.3890 O   0  0  0  0  0  0  0  0  0  0  0  0
    9.2390    7.1460   43.8840 O   0  0  0  0  0  0  0  0  0  0  0  0
   12.9760    8.2600   43.6060 C   0  0  0  0  0  0  0  0  0  0  0  0
   13.5650    9.3150   43.0100 N   0  0  0  0  0  0  0  0  0  0  0  0
   16.5260   10.6730   41.9620 C   0  0  0  0  0  0  0  0  0  0  0  0
   17.4850   11.6020   41.9120 N   0  0  0  0  0  0  0  0  0  0  0  0
   16.9760   12.5370   41.0870 N   0  0  0  0  0  0  0  0  0  0  0  0
   17.7550   13.7210   40.8120 C   0  0  0  0  0  0  0  0  0  0  0  0
   14.3878   13.8141   40.2121 H   0  0  0  0  0  0  0  0  0  0  0  0
   15.7124   13.6377   39.0116 H   0  0  0  0  0  0  0  0  0  0  0  0
   14.3401   12.4787   39.0116 H   0  0  0  0  0  0  0  0  0  0  0  0
   13.6240   10.5890   40.2230 H   0  0  0  0  0  0  0  0  0  0  0  0
   12.2735    6.3939   40.9581 H   0  0  0  0  0  0  0  0  0  0  0  0
   10.9580    5.6938   43.0709 H   0  0  0  0  0  0  0  0  0  0  0  0
   12.5555    5.2250   43.7806 H   0  0  0  0  0  0  0  0  0  0  0  0
    8.1940    5.1160   45.3500 H   0  0  0  0  0  0  0  0  0  0  0  0
    9.5370    4.5310   44.4910 H   0  0  0  0  0  0  0  0  0  0  0  0
   12.8787    8.2747   44.7016 H   0  0  0  0  0  0  0  0  0  0  0  0
   16.5967    9.7516   42.5587 H   0  0  0  0  0  0  0  0  0  0  0  0
   18.0614   14.1867   41.7603 H   0  0  0  0  0  0  0  0  0  0  0  0
   18.6489   13.4455   40.2331 H   0  0  0  0  0  0  0  0  0  0  0  0
   17.1482   14.4328   40.2331 H   0  0  0  0  0  0  0  0  0  0  0  0
  1  2  1  0
  2  3  2  0
  3  4  1  0
  4  5  1  0
  5  6  2  0
  6  7  1  0
  7  8  2  0
  8  9  1  0
  9 10  1  0
 10 11  1  0
 11 12  1  0
 11 13  2  0
 11 14  2  0
  8 15  1  0
 15 16  2  0
  3 17  1  0
 17 18  2  0
 18 19  1  0
 19 20  1  0
 19  2  1  0
 16  5  1  0
  1 21  1  0
  1 22  1  0
  1 23  1  0
  4 24  1  0
  7 25  1  0
  9 26  1  0
  9 27  1  0
 12 28  1  0
 12 29  1  0
 15 30  1  0
 17 31  1  0
 20 32  1  0
 20 33  1  0
 20 34  1  0
M  END
>  <meeko>  (174) 
{"is_sidechain": false}

>  <vina_energy>  (174) 
-6.80

$$$$

     RDKit          3D

 37 38  0  0  0  0  0  0  0  0999 V2000
   15.6700   13.7350   39.1110 C   0  0  0  0  0  0  0  0  0  0  0  0
   16.3140   12.8970   40.1520 C   0  0  0  0  0  0  0  0  0  0  0  0
   15.9490   11.6900   40.7170 C   0  0  0  0  0  0  0  0  0  0  0  0
   14.8520   10.9820   40.3880 N   0  0  0  0  0  0  0  0  0  0  0  0
   14.1630    9.9830   41.0790 C   0  0  0  0  0  0  0  0  0  0  0  0
   14.4800    9.8640   42.3790 N   0  0  0  0  0  0  0  0  0  0  0  0
   13.8330    8.9180   43.0890 C   0  0  0  0  0  0  0  0  0  0  0  0
   12.8860    8.0750   42.5560 C   0  0  0  0  0  0  0  0  0  0  0  0
   12.1510    7.0530   43.3690 C   0  0  0  0  0  0  0  0  0  0  0  0
   11.3290    7.6870   44.4900 C   0  0  0  0  0  0  0  0  0  0  0  0
    9.9640    7.3200   44.3410 O   0  0  0  0  0  0  0  0  0  0  0  0
    9.3920    6.1780   45.3390 S   0  0  0  0  0  0  0  0  0  0  0  0
    8.4790    7.0820   46.4040 N   0  0  0  0  0  0  0  0  0  0  0  0
   10.4980    5.6400   46.0930 O   0  0  0  0  0  0  0  0  0  0  0  0
    8.4770    5.3520   44.5890 O   0  0  0  0  0  0  0  0  0  0  0  0
   12.6350    8.2750   41.2170 C   0  0  0  0  0  0  0  0  0  0  0  0
   13.2520    9.2100   40.4710 N   0  0  0  0  0  0  0  0  0  0  0  0
   16.9560   11.4080   41.6610 C   0  0  0  0  0  0  0  0  0  0  0  0
   17.9010   12.3520   41.6950 N   0  0  0  0  0  0  0  0  0  0  0  0
   17.4980   13.2370   40.7640 N   0  0  0  0  0  0  0  0  0  0  0  0
   18.3070   14.4110   40.5290 C   0  0  0  0  0  0  0  0  0  0  0  0
   15.0674   14.5192   39.5926 H   0  0  0  0  0  0  0  0  0  0  0  0
   16.4447   14.2009   38.4843 H   0  0  0  0  0  0  0  0  0  0  0  0
   15.0204   13.1063   38.4843 H   0  0  0  0  0  0  0  0  0  0  0  0
   14.3860   11.1080   39.5000 H   0  0  0  0  0  0  0  0  0  0  0  0
   14.0767    8.8144   44.1567 H   0  0  0  0  0  0  0  0  0  0  0  0
   11.4740    6.4939   42.7064 H   0  0  0  0  0  0  0  0  0  0  0  0
   12.8972    6.3904   43.8318 H   0  0  0  0  0  0  0  0  0  0  0  0
   11.7002    7.3322   45.4628 H   0  0  0  0  0  0  0  0  0  0  0  0
   11.4224    8.7819   44.4396 H   0  0  0  0  0  0  0  0  0  0  0  0
    8.9460    7.9590   46.6270 H   0  0  0  0  0  0  0  0  0  0  0  0
    7.5190    7.1820   46.0850 H   0  0  0  0  0  0  0  0  0  0  0  0
   11.8868    7.6334   40.7287 H   0  0  0  0  0  0  0  0  0  0  0  0
   16.9635   10.5115   42.2984 H   0  0  0  0  0  0  0  0  0  0  0  0
   18.6080   14.8478   41.4927 H   0  0  0  0  0  0  0  0  0  0  0  0
   19.2040   14.1298   39.9577 H   0  0  0  0  0  0  0  0  0  0  0  0
   17.7249   15.1491   39.9577 H   0  0  0  0  0  0  0  0  0  0  0  0
  1  2  1  0
  2  3  2  0
  3  4  1  0
  4  5  1  0
  5  6  2  0
  6  7  1  0
  7  8  2  0
  8  9  1  0
  9 10  1  0
 10 11  1  0
 11 12  1  0
 12 13  1  0
 12 14  2  0
 12 15  2  0
  8 16  1  0
 16 17  2  0
  3 18  1  0
 18 19  2  0
 19 20  1  0
 20 21  1  0
 20  2  1  0
 17  5  1  0
  1 22  1  0
  1 23  1  0
  1 24  1  0
  4 25  1  0
  7 26  1  0
  9 27  1  0
  9 28  1  0
 10 29  1  0
 10 30  1  0
 13 31  1  0
 13 32  1  0
 16 33  1  0
 18 34  1  0
 21 35  1  0
 21 36  1  0
 21 37  1  0
M  END
>  <meeko>  (175) 
{"is_sidechain": false}

>  <vina_energy>  (175) 
-7.00

$$$$

     RDKit          3D

 29 30  0  0  0  0  0  0  0  0999 V2000
   16.2610   10.5250   42.1990 C   0  0  0  0  0  0  0  0  0  0  0  0
   14.9290   10.3720   41.5660 C   0  0  0  0  0  0  0  0  0  0  0  0
   13.8920    9.4870   41.7910 C   0  0  0  0  0  0  0  0  0  0  0  0
   13.8960    8.5080   42.7170 N   0  0  0  0  0  0  0  0  0  0  0  0
   12.8490    7.8510   43.3610 C   0  0  0  0  0  0  0  0  0  0  0  0
   12.8700    6.5100   43.2670 N   0  0  0  0  0  0  0  0  0  0  0  0
   11.8780    5.8310   43.8760 C   0  0  0  0  0  0  0  0  0  0  0  0
   10.8630    6.4290   44.5860 C   0  0  0  0  0  0  0  0  0  0  0  0
    9.7650    5.6610   45.2380 C   0  0  0  0  0  0  0  0  0  0  0  0
    8.8890    6.5290   45.9430 O   0  0  0  0  0  0  0  0  0  0  0  0
   10.9230    7.8030   44.6160 C   0  0  0  0  0  0  0  0  0  0  0  0
   11.8960    8.5240   44.0240 N   0  0  0  0  0  0  0  0  0  0  0  0
   12.8940    9.8480   40.8640 C   0  0  0  0  0  0  0  0  0  0  0  0
   13.2560   10.8840   40.1030 N   0  0  0  0  0  0  0  0  0  0  0  0
   14.4890   11.1870   40.5490 N   0  0  0  0  0  0  0  0  0  0  0  0
   15.2060   12.2840   39.9390 C   0  0  0  0  0  0  0  0  0  0  0  0
   16.1505   10.5123   43.2934 H   0  0  0  0  0  0  0  0  0  0  0  0
   16.9128    9.6958   41.8866 H   0  0  0  0  0  0  0  0  0  0  0  0
   16.7079   11.4804   41.8866 H   0  0  0  0  0  0  0  0  0  0  0  0
   14.7600    8.1170   43.0690 H   0  0  0  0  0  0  0  0  0  0  0  0
   11.8801    4.7336   43.8009 H   0  0  0  0  0  0  0  0  0  0  0  0
    9.1948    5.1225   44.4667 H   0  0  0  0  0  0  0  0  0  0  0  0
   10.2082    4.9522   45.9530 H   0  0  0  0  0  0  0  0  0  0  0  0
    8.4200    7.0770   45.2900 H   0  0  0  0  0  0  0  0  0  0  0  0
   10.1312    8.3446   45.1542 H   0  0  0  0  0  0  0  0  0  0  0  0
   11.9253    9.3341   40.7769 H   0  0  0  0  0  0  0  0  0  0  0  0
   15.6273   12.9286   40.7245 H   0  0  0  0  0  0  0  0  0  0  0  0
   16.0200   11.8877   39.3142 H   0  0  0  0  0  0  0  0  0  0  0  0
   14.5163   12.8705   39.3142 H   0  0  0  0  0  0  0  0  0  0  0  0
  1  2  1  0
  2  3  2  0
  3  4  1  0
  4  5  1  0
  5  6  2  0
  6  7  1  0
  7  8  2  0
  8  9  1  0
  9 10  1  0
  8 11  1  0
 11 12  2  0
  3 13  1  0
 13 14  2  0
 14 15  1  0
 15 16  1  0
 15  2  1  0
 12  5  1  0
  1 17  1  0
  1 18  1  0
  1 19  1  0
  4 20  1  0
  7 21  1  0
  9 22  1  0
  9 23  1  0
 10 24  1  0
 11 25  1  0
 13 26  1  0
 16 27  1  0
 16 28  1  0
 16 29  1  0
M  END
>  <meeko>  (176) 
{"is_sidechain": false}

>  <vina_energy>  (176) 
-7.83

$$$$

     RDKit          3D

 32 33  0  0  0  0  0  0  0  0999 V2000
   16.4390   10.8460   42.0790 C   0  0  0  0  0  0  0  0  0  0  0  0
   15.1480   10.6620   41.3730 C   0  0  0  0  0  0  0  0  0  0  0  0
   14.1530    9.7110   41.4970 C   0  0  0  0  0  0  0  0  0  0  0  0
   14.1700    8.6800   42.3640 N   0  0  0  0  0  0  0  0  0  0  0  0
   13.1440    8.0730   43.0880 C   0  0  0  0  0  0  0  0  0  0  0  0
   12.3690    8.9130   43.7950 N   0  0  0  0  0  0  0  0  0  0  0  0
   11.3640    8.3690   44.5120 C   0  0  0  0  0  0  0  0  0  0  0  0
   11.0970    7.0200   44.5570 C   0  0  0  0  0  0  0  0  0  0  0  0
    9.9600    6.4450   45.3390 C   0  0  0  0  0  0  0  0  0  0  0  0
    9.1670    7.5180   46.0800 C   0  0  0  0  0  0  0  0  0  0  0  0
    8.0980    6.9190   46.8030 O   0  0  0  0  0  0  0  0  0  0  0  0
   11.9420    6.2460   43.7960 C   0  0  0  0  0  0  0  0  0  0  0  0
   12.9570    6.7440   43.0650 N   0  0  0  0  0  0  0  0  0  0  0  0
   13.1790   10.0730   40.5440 C   0  0  0  0  0  0  0  0  0  0  0  0
   13.5190   11.1710   39.8630 N   0  0  0  0  0  0  0  0  0  0  0  0
   14.7110   11.5120   40.3850 N   0  0  0  0  0  0  0  0  0  0  0  0
   15.3920   12.6810   39.8760 C   0  0  0  0  0  0  0  0  0  0  0  0
   16.2694   10.8218   43.1656 H   0  0  0  0  0  0  0  0  0  0  0  0
   17.1294   10.0372   41.7976 H   0  0  0  0  0  0  0  0  0  0  0  0
   16.8759   11.8155   41.7976 H   0  0  0  0  0  0  0  0  0  0  0  0
   15.0280    8.1970   42.5960 H   0  0  0  0  0  0  0  0  0  0  0  0
   10.7200    9.0438   45.0951 H   0  0  0  0  0  0  0  0  0  0  0  0
    9.2846    5.9199   44.6476 H   0  0  0  0  0  0  0  0  0  0  0  0
   10.3798    5.7582   46.0887 H   0  0  0  0  0  0  0  0  0  0  0  0
    9.8319    8.0436   46.7812 H   0  0  0  0  0  0  0  0  0  0  0  0
    8.7555    8.2316   45.3511 H   0  0  0  0  0  0  0  0  0  0  0  0
    7.9430    7.4510   47.6040 H   0  0  0  0  0  0  0  0  0  0  0  0
   11.7791    5.1582   43.7840 H   0  0  0  0  0  0  0  0  0  0  0  0
   12.2454    9.5149   40.3799 H   0  0  0  0  0  0  0  0  0  0  0  0
   15.7486   13.2931   40.7176 H   0  0  0  0  0  0  0  0  0  0  0  0
   16.2489   12.3677   39.2616 H   0  0  0  0  0  0  0  0  0  0  0  0
   14.6968   13.2719   39.2616 H   0  0  0  0  0  0  0  0  0  0  0  0
  1  2  1  0
  2  3  2  0
  3  4  1  0
  4  5  1  0
  5  6  2  0
  6  7  1  0
  7  8  2  0
  8  9  1  0
  9 10  1  0
 10 11  1  0
  8 12  1  0
 12 13  2  0
  3 14  1  0
 14 15  2  0
 15 16  1  0
 16 17  1  0
 16  2  1  0
 13  5  1  0
  1 18  1  0
  1 19  1  0
  1 20  1  0
  4 21  1  0
  7 22  1  0
  9 23  1  0
  9 24  1  0
 10 25  1  0
 10 26  1  0
 11 27  1  0
 12 28  1  0
 14 29  1  0
 17 30  1  0
 17 31  1  0
 17 32  1  0
M  END
>  <meeko>  (177) 
{"is_sidechain": false}

>  <vina_energy>  (177) 
-7.54

$$$$

     RDKit          3D

 39 41  0  0  0  0  0  0  0  0999 V2000
   14.9820   13.3250   39.3980 C   0  0  0  0  0  0  0  0  0  0  0  0
   15.7680   12.4960   40.3440 C   0  0  0  0  0  0  0  0  0  0  0  0
   15.4930   11.2990   40.9730 C   0  0  0  0  0  0  0  0  0  0  0  0
   14.3560   10.5910   40.8310 N   0  0  0  0  0  0  0  0  0  0  0  0
   13.8640    9.4900   41.5320 C   0  0  0  0  0  0  0  0  0  0  0  0
   14.1300    9.3100   42.8360 N   0  0  0  0  0  0  0  0  0  0  0  0
   13.6140    8.2170   43.4290 C   0  0  0  0  0  0  0  0  0  0  0  0
   12.8360    7.2870   42.7790 C   0  0  0  0  0  0  0  0  0  0  0  0
   12.2580    6.0940   43.4650 C   0  0  0  0  0  0  0  0  0  0  0  0
   11.2250    6.4410   44.4220 N   0  0  0  0  0  0  0  0  0  0  0  0
   10.6580    7.7630   44.5140 C   0  0  0  0  0  0  0  0  0  0  0  0
    9.7870    7.6730   45.7510 C   0  0  0  0  0  0  0  0  0  0  0  0
    9.3060    6.2270   45.7500 C   0  0  0  0  0  0  0  0  0  0  0  0
   10.4220    5.4940   45.0440 C   0  0  0  0  0  0  0  0  0  0  0  0
   10.5550    4.2840   44.9880 O   0  0  0  0  0  0  0  0  0  0  0  0
   12.6150    7.5600   41.4470 C   0  0  0  0  0  0  0  0  0  0  0  0
   13.1150    8.6400   40.8110 N   0  0  0  0  0  0  0  0  0  0  0  0
   16.6350   11.0230   41.7520 C   0  0  0  0  0  0  0  0  0  0  0  0
   17.5710   11.9690   41.6350 N   0  0  0  0  0  0  0  0  0  0  0  0
   17.0270   12.8470   40.7710 N   0  0  0  0  0  0  0  0  0  0  0  0
   17.7780   14.0240   40.4000 C   0  0  0  0  0  0  0  0  0  0  0  0
   14.3326   14.0099   39.9629 H   0  0  0  0  0  0  0  0  0  0  0  0
   15.6670   13.9079   38.7648 H   0  0  0  0  0  0  0  0  0  0  0  0
   14.3635   12.6720   38.7648 H   0  0  0  0  0  0  0  0  0  0  0  0
   13.6750   10.8180   40.1180 H   0  0  0  0  0  0  0  0  0  0  0  0
   13.8271    8.0582   44.4964 H   0  0  0  0  0  0  0  0  0  0  0  0
   11.8235    5.4279   42.7050 H   0  0  0  0  0  0  0  0  0  0  0  0
   13.0721    5.6045   44.0197 H   0  0  0  0  0  0  0  0  0  0  0  0
   11.4437    8.5228   44.6378 H   0  0  0  0  0  0  0  0  0  0  0  0
   10.1025    8.0609   43.6125 H   0  0  0  0  0  0  0  0  0  0  0  0
   10.3699    7.8918   46.6579 H   0  0  0  0  0  0  0  0  0  0  0  0
    8.9593    8.3975   45.7431 H   0  0  0  0  0  0  0  0  0  0  0  0
    9.1760    5.8536   46.7765 H   0  0  0  0  0  0  0  0  0  0  0  0
    8.3282    6.0974   45.2630 H   0  0  0  0  0  0  0  0  0  0  0  0
   11.9960    6.8579   40.8692 H   0  0  0  0  0  0  0  0  0  0  0  0
   16.7432   10.1297   42.3847 H   0  0  0  0  0  0  0  0  0  0  0  0
   18.1119   14.5473   41.3081 H   0  0  0  0  0  0  0  0  0  0  0  0
   18.6541   13.7274   39.8047 H   0  0  0  0  0  0  0  0  0  0  0  0
   17.1398   14.6936   39.8047 H   0  0  0  0  0  0  0  0  0  0  0  0
  1  2  1  0
  2  3  2  0
  3  4  1  0
  4  5  1  0
  5  6  2  0
  6  7  1  0
  7  8  2  0
  8  9  1  0
  9 10  1  0
 10 11  1  0
 11 12  1  0
 12 13  1  0
 13 14  1  0
 14 15  2  0
  8 16  1  0
 16 17  2  0
  3 18  1  0
 18 19  2  0
 19 20  1  0
 20 21  1  0
 20  2  1  0
 17  5  1  0
 14 10  1  0
  1 22  1  0
  1 23  1  0
  1 24  1  0
  4 25  1  0
  7 26  1  0
  9 27  1  0
  9 28  1  0
 11 29  1  0
 11 30  1  0
 12 31  1  0
 12 32  1  0
 13 33  1  0
 13 34  1  0
 16 35  1  0
 18 36  1  0
 21 37  1  0
 21 38  1  0
 21 39  1  0
M  END
>  <meeko>  (178) 
{"is_sidechain": false}

>  <vina_energy>  (178) 
-6.88

$$$$

     RDKit          3D

 39 41  0  0  0  0  0  0  0  0999 V2000
   14.9930   13.3390   39.5040 C   0  0  0  0  0  0  0  0  0  0  0  0
   15.7580   12.4750   40.4380 C   0  0  0  0  0  0  0  0  0  0  0  0
   15.4640   11.2670   41.0350 C   0  0  0  0  0  0  0  0  0  0  0  0
   14.3200   10.5730   40.8660 N   0  0  0  0  0  0  0  0  0  0  0  0
   13.8010    9.4840   41.5630 C   0  0  0  0  0  0  0  0  0  0  0  0
   13.1830    8.5520   40.8190 N   0  0  0  0  0  0  0  0  0  0  0  0
   12.6680    7.4830   41.4540 C   0  0  0  0  0  0  0  0  0  0  0  0
   12.7480    7.2890   42.8160 C   0  0  0  0  0  0  0  0  0  0  0  0
   12.2080    6.0790   43.4980 C   0  0  0  0  0  0  0  0  0  0  0  0
   11.2240    6.4020   44.5600 N   0  0  2  0  0  0  0  0  0  0  0  0
   10.4930    5.2150   45.0600 C   0  0  0  0  0  0  0  0  0  0  0  0
    9.2220    6.1080   45.1150 C   0  0  1  0  0  0  0  0  0  0  0  0
    8.9960    6.7950   46.3690 O   0  0  0  0  0  0  0  0  0  0  0  0
    9.9520    6.9240   44.0110 C   0  0  0  0  0  0  0  0  0  0  0  0
   13.3890    8.2990   43.4940 C   0  0  0  0  0  0  0  0  0  0  0  0
   13.9190    9.3790   42.8950 N   0  0  0  0  0  0  0  0  0  0  0  0
   16.5950   10.9600   41.8180 C   0  0  0  0  0  0  0  0  0  0  0  0
   17.5430   11.8950   41.7290 N   0  0  0  0  0  0  0  0  0  0  0  0
   17.0160   12.8030   40.8870 N   0  0  0  0  0  0  0  0  0  0  0  0
   17.7820   13.9830   40.5570 C   0  0  0  0  0  0  0  0  0  0  0  0
   14.3715   14.0409   40.0795 H   0  0  0  0  0  0  0  0  0  0  0  0
   15.6928   13.9035   38.8703 H   0  0  0  0  0  0  0  0  0  0  0  0
   14.3479   12.7128   38.8703 H   0  0  0  0  0  0  0  0  0  0  0  0
   13.6650   10.8220   40.1360 H   0  0  0  0  0  0  0  0  0  0  0  0
   12.1536    6.7202   40.8511 H   0  0  0  0  0  0  0  0  0  0  0  0
   11.7167    5.4433   42.7467 H   0  0  0  0  0  0  0  0  0  0  0  0
   13.0547    5.5674   43.9790 H   0  0  0  0  0  0  0  0  0  0  0  0
   11.5840    6.9830   45.3340 H   0  0  0  0  0  0  0  0  0  0  0  0
   10.4355    4.3780   44.3486 H   0  0  0  0  0  0  0  0  0  0  0  0
   10.8404    4.6473   45.9358 H   0  0  0  0  0  0  0  0  0  0  0  0
    8.1974    5.7231   45.0055 H   0  0  0  0  0  0  0  0  0  0  0  0
    9.7840    6.6290   46.9230 H   0  0  0  0  0  0  0  0  0  0  0  0
    9.7307    6.6045   42.9820 H   0  0  0  0  0  0  0  0  0  0  0  0
    9.7780    8.0018   43.8768 H   0  0  0  0  0  0  0  0  0  0  0  0
   13.4727    8.2185   44.5879 H   0  0  0  0  0  0  0  0  0  0  0  0
   16.6860   10.0524   42.4329 H   0  0  0  0  0  0  0  0  0  0  0  0
   18.1053   14.4811   41.4829 H   0  0  0  0  0  0  0  0  0  0  0  0
   18.6652   13.6941   39.9684 H   0  0  0  0  0  0  0  0  0  0  0  0
   17.1586   14.6721   39.9684 H   0  0  0  0  0  0  0  0  0  0  0  0
  1  2  1  0
  2  3  2  0
  3  4  1  0
  4  5  1  0
  5  6  2  0
  6  7  1  0
  7  8  2  0
  8  9  1  0
  9 10  1  0
 10 11  1  0
 11 12  1  0
 12 13  1  0
 12 14  1  0
  8 15  1  0
 15 16  2  0
  3 17  1  0
 17 18  2  0
 18 19  1  0
 19 20  1  0
 19  2  1  0
 16  5  1  0
 14 10  1  0
  1 21  1  0
  1 22  1  0
  1 23  1  0
  4 24  1  0
  7 25  1  0
  9 26  1  0
  9 27  1  0
 10 28  1  6
 11 29  1  0
 11 30  1  0
 12 31  1  1
 13 32  1  0
 14 33  1  0
 14 34  1  0
 15 35  1  0
 17 36  1  0
 20 37  1  0
 20 38  1  0
 20 39  1  0
M  CHG  1  10   1
M  END
>  <meeko>  (179) 
{"is_sidechain": false}

>  <vina_energy>  (179) 
-6.78

$$$$

     RDKit          3D

 38 40  0  0  0  0  0  0  0  0999 V2000
   14.9490   13.2810   39.4830 C   0  0  0  0  0  0  0  0  0  0  0  0
   15.7280   12.4340   40.4200 C   0  0  0  0  0  0  0  0  0  0  0  0
   15.4470   11.2280   41.0290 C   0  0  0  0  0  0  0  0  0  0  0  0
   14.3090   10.5260   40.8690 N   0  0  0  0  0  0  0  0  0  0  0  0
   13.7970    9.4350   41.5720 C   0  0  0  0  0  0  0  0  0  0  0  0
   14.1100    9.2160   42.8590 N   0  0  0  0  0  0  0  0  0  0  0  0
   13.5670    8.1380   43.4550 C   0  0  0  0  0  0  0  0  0  0  0  0
   12.7210    7.2570   42.8210 C   0  0  0  0  0  0  0  0  0  0  0  0
   12.1420    6.0590   43.4960 C   0  0  0  0  0  0  0  0  0  0  0  0
   11.0800    6.4110   44.4110 N   0  0  0  0  0  0  0  0  0  0  0  0
   10.6650    7.7710   44.6780 C   0  0  0  0  0  0  0  0  0  0  0  0
    9.6920    7.6180   45.8430 C   0  0  0  0  0  0  0  0  0  0  0  0
    9.3970    6.2100   45.8680 N   0  0  0  0  0  0  0  0  0  0  0  0
   10.3180    5.4980   45.1210 C   0  0  0  0  0  0  0  0  0  0  0  0
   10.4350    4.2860   45.1210 O   0  0  0  0  0  0  0  0  0  0  0  0
   12.4640    7.5630   41.5030 C   0  0  0  0  0  0  0  0  0  0  0  0
   12.9810    8.6330   40.8660 N   0  0  0  0  0  0  0  0  0  0  0  0
   16.5830   10.9390   41.8110 C   0  0  0  0  0  0  0  0  0  0  0  0
   17.5240   11.8830   41.7110 N   0  0  0  0  0  0  0  0  0  0  0  0
   16.9860   12.7760   40.8610 N   0  0  0  0  0  0  0  0  0  0  0  0
   17.7390   13.9590   40.5150 C   0  0  0  0  0  0  0  0  0  0  0  0
   14.3132   13.9723   40.0557 H   0  0  0  0  0  0  0  0  0  0  0  0
   15.6392   13.8573   38.8494 H   0  0  0  0  0  0  0  0  0  0  0  0
   14.3171   12.6413   38.8494 H   0  0  0  0  0  0  0  0  0  0  0  0
   13.6440   10.7510   40.1420 H   0  0  0  0  0  0  0  0  0  0  0  0
   13.8139    7.9504   44.5104 H   0  0  0  0  0  0  0  0  0  0  0  0
   11.7396    5.3800   42.7298 H   0  0  0  0  0  0  0  0  0  0  0  0
   12.9428    5.5766   44.0757 H   0  0  0  0  0  0  0  0  0  0  0  0
   11.5241    8.3968   44.9615 H   0  0  0  0  0  0  0  0  0  0  0  0
   10.2155    8.2638   43.8033 H   0  0  0  0  0  0  0  0  0  0  0  0
   10.1589    7.9364   46.7867 H   0  0  0  0  0  0  0  0  0  0  0  0
    8.7905    8.2373   45.7256 H   0  0  0  0  0  0  0  0  0  0  0  0
    8.8790    5.7310   46.5930 H   0  0  0  0  0  0  0  0  0  0  0  0
   11.7979    6.8953   40.9368 H   0  0  0  0  0  0  0  0  0  0  0  0
   16.6840   10.0379   42.4337 H   0  0  0  0  0  0  0  0  0  0  0  0
   18.0636   14.4689   41.4341 H   0  0  0  0  0  0  0  0  0  0  0  0
   18.6211   13.6723   39.9237 H   0  0  0  0  0  0  0  0  0  0  0  0
   17.1058   14.6368   39.9237 H   0  0  0  0  0  0  0  0  0  0  0  0
  1  2  1  0
  2  3  2  0
  3  4  1  0
  4  5  1  0
  5  6  2  0
  6  7  1  0
  7  8  2  0
  8  9  1  0
  9 10  1  0
 10 11  1  0
 11 12  1  0
 12 13  1  0
 13 14  1  0
 14 15  2  0
  8 16  1  0
 16 17  2  0
  3 18  1  0
 18 19  2  0
 19 20  1  0
 20 21  1  0
 20  2  1  0
 17  5  1  0
 14 10  1  0
  1 22  1  0
  1 23  1  0
  1 24  1  0
  4 25  1  0
  7 26  1  0
  9 27  1  0
  9 28  1  0
 11 29  1  0
 11 30  1  0
 12 31  1  0
 12 32  1  0
 13 33  1  0
 16 34  1  0
 18 35  1  0
 21 36  1  0
 21 37  1  0
 21 38  1  0
M  END
>  <meeko>  (180) 
{"is_sidechain": false}

>  <vina_energy>  (180) 
-7.49

$$$$

     RDKit          3D

 37 39  0  0  0  0  0  0  0  0999 V2000
   14.9640   13.3290   39.3750 C   0  0  0  0  0  0  0  0  0  0  0  0
   15.7570   12.5130   40.3280 C   0  0  0  0  0  0  0  0  0  0  0  0
   15.4820   11.3170   40.9620 C   0  0  0  0  0  0  0  0  0  0  0  0
   14.3510   10.6020   40.8130 N   0  0  0  0  0  0  0  0  0  0  0  0
   13.8500    9.5150   41.5290 C   0  0  0  0  0  0  0  0  0  0  0  0
   12.9950    8.7290   40.8530 N   0  0  0  0  0  0  0  0  0  0  0  0
   12.4830    7.6640   41.5040 C   0  0  0  0  0  0  0  0  0  0  0  0
   12.7820    7.3510   42.8100 C   0  0  0  0  0  0  0  0  0  0  0  0
   12.2130    6.1600   43.5090 C   0  0  0  0  0  0  0  0  0  0  0  0
   11.0890    6.4830   44.3640 N   0  0  0  0  0  0  0  0  0  0  0  0
   10.8590    7.7870   44.9070 C   0  0  0  0  0  0  0  0  0  0  0  0
    9.5750    7.5770   45.6720 C   0  0  0  0  0  0  0  0  0  0  0  0
    9.5570    6.1760   45.9710 O   0  0  0  0  0  0  0  0  0  0  0  0
   10.4120    5.5470   45.1080 C   0  0  0  0  0  0  0  0  0  0  0  0
   10.5550    4.3370   45.0460 O   0  0  0  0  0  0  0  0  0  0  0  0
   13.6670    8.2150   43.4140 C   0  0  0  0  0  0  0  0  0  0  0  0
   14.2070    9.2860   42.8020 N   0  0  0  0  0  0  0  0  0  0  0  0
   16.6150   11.0560   41.7570 C   0  0  0  0  0  0  0  0  0  0  0  0
   17.5490   12.0040   41.6410 N   0  0  0  0  0  0  0  0  0  0  0  0
   17.0110   12.8720   40.7630 N   0  0  0  0  0  0  0  0  0  0  0  0
   17.7800   14.0410   40.4040 C   0  0  0  0  0  0  0  0  0  0  0  0
   14.3040   14.0081   39.9346 H   0  0  0  0  0  0  0  0  0  0  0  0
   15.6442   13.9178   38.7420 H   0  0  0  0  0  0  0  0  0  0  0  0
   14.3560   12.6659   38.7420 H   0  0  0  0  0  0  0  0  0  0  0  0
   13.6840   10.8090   40.0810 H   0  0  0  0  0  0  0  0  0  0  0  0
   11.7870    7.0087   40.9598 H   0  0  0  0  0  0  0  0  0  0  0  0
   11.8790    5.4363   42.7509 H   0  0  0  0  0  0  0  0  0  0  0  0
   13.0052    5.7490   44.1520 H   0  0  0  0  0  0  0  0  0  0  0  0
   11.6779    8.0938   45.5743 H   0  0  0  0  0  0  0  0  0  0  0  0
   10.8028    8.5828   44.1497 H   0  0  0  0  0  0  0  0  0  0  0  0
    9.5728    8.1716   46.5975 H   0  0  0  0  0  0  0  0  0  0  0  0
    8.6912    7.8922   45.0979 H   0  0  0  0  0  0  0  0  0  0  0  0
   13.9500    8.0189   44.4587 H   0  0  0  0  0  0  0  0  0  0  0  0
   16.7191   10.1706   42.4013 H   0  0  0  0  0  0  0  0  0  0  0  0
   18.1168   14.5530   41.3174 H   0  0  0  0  0  0  0  0  0  0  0  0
   18.6547   13.7365   39.8106 H   0  0  0  0  0  0  0  0  0  0  0  0
   17.1540   14.7237   39.8106 H   0  0  0  0  0  0  0  0  0  0  0  0
  1  2  1  0
  2  3  2  0
  3  4  1  0
  4  5  1  0
  5  6  2  0
  6  7  1  0
  7  8  2  0
  8  9  1  0
  9 10  1  0
 10 11  1  0
 11 12  1  0
 12 13  1  0
 13 14  1  0
 14 15  2  0
  8 16  1  0
 16 17  2  0
  3 18  1  0
 18 19  2  0
 19 20  1  0
 20 21  1  0
 20  2  1  0
 17  5  1  0
 14 10  1  0
  1 22  1  0
  1 23  1  0
  1 24  1  0
  4 25  1  0
  7 26  1  0
  9 27  1  0
  9 28  1  0
 11 29  1  0
 11 30  1  0
 12 31  1  0
 12 32  1  0
 16 33  1  0
 18 34  1  0
 21 35  1  0
 21 36  1  0
 21 37  1  0
M  END
>  <meeko>  (181) 
{"is_sidechain": false}

>  <vina_energy>  (181) 
-7.08

$$$$

     RDKit          3D

 35 36  0  0  0  0  0  0  0  0999 V2000
   16.4220   11.1620   42.0010 C   0  0  0  0  0  0  0  0  0  0  0  0
   15.1320   10.8480   41.3370 C   0  0  0  0  0  0  0  0  0  0  0  0
   14.1920    9.8630   41.5620 C   0  0  0  0  0  0  0  0  0  0  0  0
   14.2740    8.9150   42.5160 N   0  0  0  0  0  0  0  0  0  0  0  0
   13.2830    8.1950   43.1820 C   0  0  0  0  0  0  0  0  0  0  0  0
   13.3970    6.8580   43.1020 N   0  0  0  0  0  0  0  0  0  0  0  0
   12.4610    6.1200   43.7330 C   0  0  0  0  0  0  0  0  0  0  0  0
   11.4150    6.6560   44.4490 C   0  0  0  0  0  0  0  0  0  0  0  0
   10.3820    5.8140   45.1300 C   0  0  0  0  0  0  0  0  0  0  0  0
    9.0450    6.5390   45.2540 C   0  0  0  0  0  0  0  0  0  0  0  0
    8.9330    7.2790   46.5800 C   0  0  0  0  0  0  0  0  0  0  0  0
    8.1400    8.4410   46.3890 O   0  0  0  0  0  0  0  0  0  0  0  0
   11.3820    8.0320   44.4640 C   0  0  0  0  0  0  0  0  0  0  0  0
   12.2950    8.8110   43.8500 N   0  0  0  0  0  0  0  0  0  0  0  0
   13.1880   10.0890   40.5990 C   0  0  0  0  0  0  0  0  0  0  0  0
   13.4580   11.1390   39.8180 N   0  0  0  0  0  0  0  0  0  0  0  0
   14.6390   11.5840   40.2860 N   0  0  0  0  0  0  0  0  0  0  0  0
   15.2510   12.7350   39.6640 C   0  0  0  0  0  0  0  0  0  0  0  0
   16.2899   11.1298   43.0926 H   0  0  0  0  0  0  0  0  0  0  0  0
   17.1784   10.4218   41.7012 H   0  0  0  0  0  0  0  0  0  0  0  0
   16.7536   12.1671   41.7012 H   0  0  0  0  0  0  0  0  0  0  0  0
   15.1640    8.6030   42.8760 H   0  0  0  0  0  0  0  0  0  0  0  0
   12.5382    5.0244   43.6717 H   0  0  0  0  0  0  0  0  0  0  0  0
   10.2339    4.8930   44.5471 H   0  0  0  0  0  0  0  0  0  0  0  0
   10.7420    5.5889   46.1448 H   0  0  0  0  0  0  0  0  0  0  0  0
    8.9535    7.2635   44.4314 H   0  0  0  0  0  0  0  0  0  0  0  0
    8.2405    5.7903   45.2073 H   0  0  0  0  0  0  0  0  0  0  0  0
    8.4593    6.6269   47.3286 H   0  0  0  0  0  0  0  0  0  0  0  0
    9.9344    7.5637   46.9353 H   0  0  0  0  0  0  0  0  0  0  0  0
    8.1730    8.9530   47.2150 H   0  0  0  0  0  0  0  0  0  0  0  0
   10.5631    8.5246   45.0086 H   0  0  0  0  0  0  0  0  0  0  0  0
   12.2837    9.4704   40.5013 H   0  0  0  0  0  0  0  0  0  0  0  0
   15.6160   13.4215   40.4421 H   0  0  0  0  0  0  0  0  0  0  0  0
   16.0945   12.4084   39.0381 H   0  0  0  0  0  0  0  0  0  0  0  0
   14.5085   13.2517   39.0381 H   0  0  0  0  0  0  0  0  0  0  0  0
  1  2  1  0
  2  3  2  0
  3  4  1  0
  4  5  1  0
  5  6  2  0
  6  7  1  0
  7  8  2  0
  8  9  1  0
  9 10  1  0
 10 11  1  0
 11 12  1  0
  8 13  1  0
 13 14  2  0
  3 15  1  0
 15 16  2  0
 16 17  1  0
 17 18  1  0
 17  2  1  0
 14  5  1  0
  1 19  1  0
  1 20  1  0
  1 21  1  0
  4 22  1  0
  7 23  1  0
  9 24  1  0
  9 25  1  0
 10 26  1  0
 10 27  1  0
 11 28  1  0
 11 29  1  0
 12 30  1  0
 13 31  1  0
 15 32  1  0
 18 33  1  0
 18 34  1  0
 18 35  1  0
M  END
>  <meeko>  (182) 
{"is_sidechain": false}

>  <vina_energy>  (182) 
-6.83

$$$$

     RDKit          3D

 39 40  0  0  0  0  0  0  0  0999 V2000
   19.0140   14.6740   39.2840 C   0  0  0  0  0  0  0  0  0  0  0  0
   18.8720   14.9280   40.7390 C   0  0  0  0  0  0  0  0  0  0  0  0
   18.5480   14.1000   41.7940 C   0  0  0  0  0  0  0  0  0  0  0  0
   18.2730   12.7850   41.6940 N   0  0  0  0  0  0  0  0  0  0  0  0
   17.0670   12.1090   41.5100 C   0  0  0  0  0  0  0  0  0  0  0  0
   16.7840   10.9810   42.1810 N   0  0  0  0  0  0  0  0  0  0  0  0
   15.5950   10.3970   41.9390 C   0  0  0  0  0  0  0  0  0  0  0  0
   14.6680   10.8910   41.0520 C   0  0  0  0  0  0  0  0  0  0  0  0
   13.3390   10.2440   40.8220 C   0  0  0  0  0  0  0  0  0  0  0  0
   13.2910    8.8280   41.4030 C   0  0  0  0  0  0  0  0  0  0  0  0
   12.3190    8.7040   42.4720 N   0  0  0  0  0  0  0  0  0  0  0  0
   12.4070    7.6970   43.4090 C   0  0  0  0  0  0  0  0  0  0  0  0
   13.3300    6.8860   43.4490 O   0  0  0  0  0  0  0  0  0  0  0  0
   11.2670    7.6710   44.4280 C   0  0  0  0  0  0  0  0  0  0  0  0
    9.9930    7.7040   43.8030 O   0  0  0  0  0  0  0  0  0  0  0  0
   15.0470   12.0520   40.4160 C   0  0  0  0  0  0  0  0  0  0  0  0
   16.2250   12.6700   40.6250 N   0  0  0  0  0  0  0  0  0  0  0  0
   18.5730   14.9310   42.9320 C   0  0  0  0  0  0  0  0  0  0  0  0
   18.8900   16.1940   42.6330 N   0  0  0  0  0  0  0  0  0  0  0  0
   19.0730   16.1660   41.3000 N   0  0  0  0  0  0  0  0  0  0  0  0
   19.4390   17.3850   40.6160 C   0  0  0  0  0  0  0  0  0  0  0  0
   19.5453   13.7236   39.1278 H   0  0  0  0  0  0  0  0  0  0  0  0
   18.0170   14.6168   38.8228 H   0  0  0  0  0  0  0  0  0  0  0  0
   19.5849   15.4933   38.8228 H   0  0  0  0  0  0  0  0  0  0  0  0
   19.0010   12.0850   41.7550 H   0  0  0  0  0  0  0  0  0  0  0  0
   15.3515    9.4719   42.4820 H   0  0  0  0  0  0  0  0  0  0  0  0
   12.5583   10.8528   41.3014 H   0  0  0  0  0  0  0  0  0  0  0  0
   13.1740   10.1754   39.7366 H   0  0  0  0  0  0  0  0  0  0  0  0
   13.0250    8.1250   40.5998 H   0  0  0  0  0  0  0  0  0  0  0  0
   14.2827    8.6027   41.8223 H   0  0  0  0  0  0  0  0  0  0  0  0
   11.4910    9.2880   42.4470 H   0  0  0  0  0  0  0  0  0  0  0  0
   11.3457    6.7506   45.0252 H   0  0  0  0  0  0  0  0  0  0  0  0
   11.3575    8.5658   45.0613 H   0  0  0  0  0  0  0  0  0  0  0  0
    9.3870    8.1180   44.4480 H   0  0  0  0  0  0  0  0  0  0  0  0
   14.3471   12.5005   39.6956 H   0  0  0  0  0  0  0  0  0  0  0  0
   18.3560   14.5794   43.9515 H   0  0  0  0  0  0  0  0  0  0  0  0
   19.6731   18.1645   41.3560 H   0  0  0  0  0  0  0  0  0  0  0  0
   20.3215   17.2010   39.9857 H   0  0  0  0  0  0  0  0  0  0  0  0
   18.6011   17.7175   39.9857 H   0  0  0  0  0  0  0  0  0  0  0  0
  1  2  1  0
  2  3  2  0
  3  4  1  0
  4  5  1  0
  5  6  2  0
  6  7  1  0
  7  8  2  0
  8  9  1  0
  9 10  1  0
 10 11  1  0
 11 12  1  0
 12 13  2  0
 12 14  1  0
 14 15  1  0
  8 16  1  0
 16 17  2  0
  3 18  1  0
 18 19  2  0
 19 20  1  0
 20 21  1  0
 20  2  1  0
 17  5  1  0
  1 22  1  0
  1 23  1  0
  1 24  1  0
  4 25  1  0
  7 26  1  0
  9 27  1  0
  9 28  1  0
 10 29  1  0
 10 30  1  0
 11 31  1  0
 14 32  1  0
 14 33  1  0
 15 34  1  0
 16 35  1  0
 18 36  1  0
 21 37  1  0
 21 38  1  0
 21 39  1  0
M  END
>  <meeko>  (183) 
{"is_sidechain": false}

>  <vina_energy>  (183) 
-6.54

$$$$

     RDKit          3D

 39 41  0  0  0  0  0  0  0  0999 V2000
   18.2340   14.9210   39.1590 C   0  0  0  0  0  0  0  0  0  0  0  0
   19.1620   14.4710   40.2250 C   0  0  0  0  0  0  0  0  0  0  0  0
   18.9420   13.9140   41.4690 C   0  0  0  0  0  0  0  0  0  0  0  0
   17.7300   13.6500   41.9960 N   0  0  0  0  0  0  0  0  0  0  0  0
   16.8450   12.5940   41.7760 C   0  0  0  0  0  0  0  0  0  0  0  0
   17.0170   11.3970   42.3560 N   0  0  0  0  0  0  0  0  0  0  0  0
   16.1100   10.4390   42.0840 C   0  0  0  0  0  0  0  0  0  0  0  0
   15.0290   10.6200   41.2520 C   0  0  0  0  0  0  0  0  0  0  0  0
   14.0270    9.5500   40.9800 C   0  0  0  0  0  0  0  0  0  0  0  0
   13.8090    8.7220   42.1430 N   0  0  0  0  0  0  0  0  0  0  0  0
   12.5490    8.3330   42.5250 C   0  0  0  0  0  0  0  0  0  0  0  0
   11.5370    8.5960   41.8870 O   0  0  0  0  0  0  0  0  0  0  0  0
   12.4370    7.5700   43.7980 C   0  0  0  0  0  0  0  0  0  0  0  0
   12.3420    6.0620   43.8110 C   0  0  0  0  0  0  0  0  0  0  0  0
   11.1660    6.8880   44.2470 C   0  0  0  0  0  0  0  0  0  0  0  0
   14.9350   11.8830   40.7110 C   0  0  0  0  0  0  0  0  0  0  0  0
   15.8200   12.8720   40.9520 N   0  0  0  0  0  0  0  0  0  0  0  0
   20.2260   13.7080   42.0100 C   0  0  0  0  0  0  0  0  0  0  0  0
   21.1970   14.1000   41.1810 N   0  0  0  0  0  0  0  0  0  0  0  0
   20.5300   14.5520   40.1050 N   0  0  0  0  0  0  0  0  0  0  0  0
   21.2760   15.0640   38.9790 C   0  0  0  0  0  0  0  0  0  0  0  0
   17.3339   15.3575   39.6166 H   0  0  0  0  0  0  0  0  0  0  0  0
   18.7318   15.6778   38.5349 H   0  0  0  0  0  0  0  0  0  0  0  0
   17.9480   14.0615   38.5349 H   0  0  0  0  0  0  0  0  0  0  0  0
   17.3020   14.2630   42.6750 H   0  0  0  0  0  0  0  0  0  0  0  0
   16.2412    9.4536   42.5549 H   0  0  0  0  0  0  0  0  0  0  0  0
   13.0744   10.0175   40.6902 H   0  0  0  0  0  0  0  0  0  0  0  0
   14.4127    8.9134   40.1701 H   0  0  0  0  0  0  0  0  0  0  0  0
   14.5800    8.5690   42.7770 H   0  0  0  0  0  0  0  0  0  0  0  0
   13.1044    8.3242   44.2404 H   0  0  0  0  0  0  0  0  0  0  0  0
   12.3015    5.5058   42.8629 H   0  0  0  0  0  0  0  0  0  0  0  0
   12.9314    5.2505   44.2627 H   0  0  0  0  0  0  0  0  0  0  0  0
   10.2649    6.9361   43.6179 H   0  0  0  0  0  0  0  0  0  0  0  0
   10.5390    6.9307   45.1498 H   0  0  0  0  0  0  0  0  0  0  0  0
   14.0881   12.0980   40.0428 H   0  0  0  0  0  0  0  0  0  0  0  0
   20.4086   13.2731   43.0037 H   0  0  0  0  0  0  0  0  0  0  0  0
   22.1319   15.6514   39.3428 H   0  0  0  0  0  0  0  0  0  0  0  0
   21.6403   14.2247   38.3684 H   0  0  0  0  0  0  0  0  0  0  0  0
   20.6239   15.7057   38.3684 H   0  0  0  0  0  0  0  0  0  0  0  0
  1  2  1  0
  2  3  2  0
  3  4  1  0
  4  5  1  0
  5  6  2  0
  6  7  1  0
  7  8  2  0
  8  9  1  0
  9 10  1  0
 10 11  1  0
 11 12  2  0
 11 13  1  0
 13 14  1  0
 14 15  1  0
  8 16  1  0
 16 17  2  0
  3 18  1  0
 18 19  2  0
 19 20  1  0
 20 21  1  0
 20  2  1  0
 17  5  1  0
 15 13  1  0
  1 22  1  0
  1 23  1  0
  1 24  1  0
  4 25  1  0
  7 26  1  0
  9 27  1  0
  9 28  1  0
 10 29  1  0
 13 30  1  0
 14 31  1  0
 14 32  1  0
 15 33  1  0
 15 34  1  0
 16 35  1  0
 18 36  1  0
 21 37  1  0
 21 38  1  0
 21 39  1  0
M  END
>  <meeko>  (184) 
{"is_sidechain": false}

>  <vina_energy>  (184) 
-6.56

$$$$

     RDKit          3D

 39 41  0  0  0  0  0  0  0  0999 V2000
   17.7870   14.9180   39.1850 C   0  0  0  0  0  0  0  0  0  0  0  0
   18.7960   14.4360   40.1620 C   0  0  0  0  0  0  0  0  0  0  0  0
   18.6720   13.8160   41.3880 C   0  0  0  0  0  0  0  0  0  0  0  0
   17.5060   13.5100   41.9880 N   0  0  0  0  0  0  0  0  0  0  0  0
   16.5770   12.5020   41.7300 C   0  0  0  0  0  0  0  0  0  0  0  0
   15.5040   12.7150   40.9520 N   0  0  0  0  0  0  0  0  0  0  0  0
   14.6620   11.6830   40.7590 C   0  0  0  0  0  0  0  0  0  0  0  0
   14.8470   10.4310   41.3000 C   0  0  0  0  0  0  0  0  0  0  0  0
   13.8920    9.3030   41.0670 C   0  0  0  0  0  0  0  0  0  0  0  0
   13.1710    8.8840   42.3340 C   0  0  0  0  0  0  0  0  0  0  0  0
   12.6050    9.7000   43.0570 O   0  0  0  0  0  0  0  0  0  0  0  0
   13.2360    7.5290   42.5970 N   0  0  0  0  0  0  0  0  0  0  0  0
   12.6630    6.9600   43.7760 C   0  0  0  0  0  0  0  0  0  0  0  0
   11.9770    5.6240   43.7240 C   0  0  0  0  0  0  0  0  0  0  0  0
   11.1710    6.8720   43.9290 C   0  0  0  0  0  0  0  0  0  0  0  0
   15.9690   10.3130   42.0900 C   0  0  0  0  0  0  0  0  0  0  0  0
   16.8370   11.3200   42.3140 N   0  0  0  0  0  0  0  0  0  0  0  0
   19.9940   13.5990   41.8250 C   0  0  0  0  0  0  0  0  0  0  0  0
   20.8990   14.0480   40.9510 N   0  0  0  0  0  0  0  0  0  0  0  0
   20.1500   14.5580   39.9550 N   0  0  0  0  0  0  0  0  0  0  0  0
   20.8100   15.1460   38.8130 C   0  0  0  0  0  0  0  0  0  0  0  0
   16.9221   15.3311   39.7247 H   0  0  0  0  0  0  0  0  0  0  0  0
   18.2328   15.7004   38.5533 H   0  0  0  0  0  0  0  0  0  0  0  0
   17.4586   14.0795   38.5533 H   0  0  0  0  0  0  0  0  0  0  0  0
   17.1600   14.0400   42.7770 H   0  0  0  0  0  0  0  0  0  0  0  0
   13.7737   11.8499   40.1320 H   0  0  0  0  0  0  0  0  0  0  0  0
   13.1453    9.6202   40.3242 H   0  0  0  0  0  0  0  0  0  0  0  0
   14.4734    8.4397   40.7112 H   0  0  0  0  0  0  0  0  0  0  0  0
   13.8440    6.9450   42.0370 H   0  0  0  0  0  0  0  0  0  0  0  0
   13.4836    7.3900   44.3690 H   0  0  0  0  0  0  0  0  0  0  0  0
   11.9106    5.0767   42.7721 H   0  0  0  0  0  0  0  0  0  0  0  0
   12.0870    4.6720   44.2640 H   0  0  0  0  0  0  0  0  0  0  0  0
   10.5135    7.2397   43.1275 H   0  0  0  0  0  0  0  0  0  0  0  0
   10.4452    7.2138   44.6816 H   0  0  0  0  0  0  0  0  0  0  0  0
   16.1684    9.3413   42.5655 H   0  0  0  0  0  0  0  0  0  0  0  0
   20.2517   13.1145   42.7783 H   0  0  0  0  0  0  0  0  0  0  0  0
   21.5899   15.8408   39.1578 H   0  0  0  0  0  0  0  0  0  0  0  0
   21.2689   14.3519   38.2056 H   0  0  0  0  0  0  0  0  0  0  0  0
   20.0739   15.6931   38.2056 H   0  0  0  0  0  0  0  0  0  0  0  0
  1  2  1  0
  2  3  2  0
  3  4  1  0
  4  5  1  0
  5  6  2  0
  6  7  1  0
  7  8  2  0
  8  9  1  0
  9 10  1  0
 10 11  2  0
 10 12  1  0
 12 13  1  0
 13 14  1  0
 14 15  1  0
  8 16  1  0
 16 17  2  0
  3 18  1  0
 18 19  2  0
 19 20  1  0
 20 21  1  0
 20  2  1  0
 17  5  1  0
 15 13  1  0
  1 22  1  0
  1 23  1  0
  1 24  1  0
  4 25  1  0
  7 26  1  0
  9 27  1  0
  9 28  1  0
 12 29  1  0
 13 30  1  0
 14 31  1  0
 14 32  1  0
 15 33  1  0
 15 34  1  0
 16 35  1  0
 18 36  1  0
 21 37  1  0
 21 38  1  0
 21 39  1  0
M  END
>  <meeko>  (185) 
{"is_sidechain": false}

>  <vina_energy>  (185) 
-6.75

$$$$

     RDKit          3D

 39 40  0  0  0  0  0  0  0  0999 V2000
   17.7090   14.8620   39.1790 C   0  0  0  0  0  0  0  0  0  0  0  0
   18.7290   14.3370   40.1190 C   0  0  0  0  0  0  0  0  0  0  0  0
   18.6200   13.6790   41.3270 C   0  0  0  0  0  0  0  0  0  0  0  0
   17.4600   13.3630   41.9360 N   0  0  0  0  0  0  0  0  0  0  0  0
   16.5860   12.2930   41.7480 C   0  0  0  0  0  0  0  0  0  0  0  0
   16.8040   11.0970   42.3190 N   0  0  0  0  0  0  0  0  0  0  0  0
   15.9040   10.1250   42.0870 C   0  0  0  0  0  0  0  0  0  0  0  0
   14.7780   10.2920   41.3130 C   0  0  0  0  0  0  0  0  0  0  0  0
   13.7910    9.1950   41.0750 C   0  0  0  0  0  0  0  0  0  0  0  0
   13.0950    8.7570   42.3490 C   0  0  0  0  0  0  0  0  0  0  0  0
   12.6300    9.5630   43.1500 O   0  0  0  0  0  0  0  0  0  0  0  0
   13.0550    7.3950   42.5430 N   0  0  0  0  0  0  0  0  0  0  0  0
   12.4740    6.8200   43.7400 C   0  0  0  0  0  0  0  0  0  0  0  0
   10.9450    6.8550   43.7410 C   0  0  0  0  0  0  0  0  0  0  0  0
   10.4750    8.0170   44.4150 O   0  0  0  0  0  0  0  0  0  0  0  0
   14.6450   11.5500   40.7650 C   0  0  0  0  0  0  0  0  0  0  0  0
   15.5240   12.5520   40.9680 N   0  0  0  0  0  0  0  0  0  0  0  0
   19.9470   13.4380   41.7340 C   0  0  0  0  0  0  0  0  0  0  0  0
   20.8410   13.9080   40.8600 N   0  0  0  0  0  0  0  0  0  0  0  0
   20.0810   14.4550   39.8940 N   0  0  0  0  0  0  0  0  0  0  0  0
   20.7270   15.0760   38.7610 C   0  0  0  0  0  0  0  0  0  0  0  0
   16.8724   15.2926   39.7488 H   0  0  0  0  0  0  0  0  0  0  0  0
   18.1601   15.6400   38.5455 H   0  0  0  0  0  0  0  0  0  0  0  0
   17.3380   14.0428   38.5455 H   0  0  0  0  0  0  0  0  0  0  0  0
   17.0780   13.9360   42.6760 H   0  0  0  0  0  0  0  0  0  0  0  0
   16.0778    9.1389   42.5424 H   0  0  0  0  0  0  0  0  0  0  0  0
   13.0323    9.5509   40.3625 H   0  0  0  0  0  0  0  0  0  0  0  0
   14.3413    8.3289   40.6788 H   0  0  0  0  0  0  0  0  0  0  0  0
   13.5090    6.7730   41.8860 H   0  0  0  0  0  0  0  0  0  0  0  0
   12.8003    5.7725   43.8191 H   0  0  0  0  0  0  0  0  0  0  0  0
   12.8165    7.4236   44.5934 H   0  0  0  0  0  0  0  0  0  0  0  0
   10.5822    6.8668   42.7026 H   0  0  0  0  0  0  0  0  0  0  0  0
   10.5684    5.9632   44.2633 H   0  0  0  0  0  0  0  0  0  0  0  0
    9.6150    8.2470   44.0200 H   0  0  0  0  0  0  0  0  0  0  0  0
   13.7719   11.7475   40.1257 H   0  0  0  0  0  0  0  0  0  0  0  0
   20.2166   12.9209   42.6667 H   0  0  0  0  0  0  0  0  0  0  0  0
   21.4774   15.7974   39.1168 H   0  0  0  0  0  0  0  0  0  0  0  0
   21.2202   14.3043   38.1517 H   0  0  0  0  0  0  0  0  0  0  0  0
   19.9753   15.5993   38.1517 H   0  0  0  0  0  0  0  0  0  0  0  0
  1  2  1  0
  2  3  2  0
  3  4  1  0
  4  5  1  0
  5  6  2  0
  6  7  1  0
  7  8  2  0
  8  9  1  0
  9 10  1  0
 10 11  2  0
 10 12  1  0
 12 13  1  0
 13 14  1  0
 14 15  1  0
  8 16  1  0
 16 17  2  0
  3 18  1  0
 18 19  2  0
 19 20  1  0
 20 21  1  0
 20  2  1  0
 17  5  1  0
  1 22  1  0
  1 23  1  0
  1 24  1  0
  4 25  1  0
  7 26  1  0
  9 27  1  0
  9 28  1  0
 12 29  1  0
 13 30  1  0
 13 31  1  0
 14 32  1  0
 14 33  1  0
 15 34  1  0
 16 35  1  0
 18 36  1  0
 21 37  1  0
 21 38  1  0
 21 39  1  0
M  END
>  <meeko>  (186) 
{"is_sidechain": false}

>  <vina_energy>  (186) 
-6.22

$$$$

     RDKit          3D

 30 31  0  0  0  0  0  0  0  0999 V2000
   16.2250   11.0930   42.0430 C   0  0  0  0  0  0  0  0  0  0  0  0
   14.9560   10.7570   41.3530 C   0  0  0  0  0  0  0  0  0  0  0  0
   14.0470    9.7350   41.5400 C   0  0  0  0  0  0  0  0  0  0  0  0
   14.1540    8.7660   42.4670 N   0  0  0  0  0  0  0  0  0  0  0  0
   13.1860    8.0860   43.2110 C   0  0  0  0  0  0  0  0  0  0  0  0
   13.2780    6.7470   43.1570 N   0  0  0  0  0  0  0  0  0  0  0  0
   12.3630    6.0420   43.8580 C   0  0  0  0  0  0  0  0  0  0  0  0
   11.3750    6.6180   44.6250 C   0  0  0  0  0  0  0  0  0  0  0  0
   10.4010    5.8140   45.4260 C   0  0  0  0  0  0  0  0  0  0  0  0
    8.9650    6.2460   45.1470 C   0  0  0  0  0  0  0  0  0  0  0  0
    8.4120    5.6650   44.1680 O   0  0  0  0  0  0  0  0  0  0  0  0
    8.5000    7.1120   45.9400 O   0  0  0  0  0  0  0  0  0  0  0  0
   11.3620    7.9930   44.5980 C   0  0  0  0  0  0  0  0  0  0  0  0
   12.2540    8.7450   43.9180 N   0  0  0  0  0  0  0  0  0  0  0  0
   13.0440    9.9550   40.5750 C   0  0  0  0  0  0  0  0  0  0  0  0
   13.2850   11.0380   39.8280 N   0  0  0  0  0  0  0  0  0  0  0  0
   14.4550   11.4960   40.3090 N   0  0  0  0  0  0  0  0  0  0  0  0
   15.0410   12.6750   39.7160 C   0  0  0  0  0  0  0  0  0  0  0  0
   16.0723   11.0526   43.1316 H   0  0  0  0  0  0  0  0  0  0  0  0
   17.0019   10.3696   41.7546 H   0  0  0  0  0  0  0  0  0  0  0  0
   16.5421   12.1061   41.7546 H   0  0  0  0  0  0  0  0  0  0  0  0
   15.0440    8.3690   42.7330 H   0  0  0  0  0  0  0  0  0  0  0  0
   12.4101    4.9439   43.8134 H   0  0  0  0  0  0  0  0  0  0  0  0
   10.5128    4.7514   45.1646 H   0  0  0  0  0  0  0  0  0  0  0  0
   10.6115    5.9761   46.4934 H   0  0  0  0  0  0  0  0  0  0  0  0
   10.5760    8.5126   45.1657 H   0  0  0  0  0  0  0  0  0  0  0  0
   12.1624    9.3090   40.4501 H   0  0  0  0  0  0  0  0  0  0  0  0
   15.3794   13.3558   40.5110 H   0  0  0  0  0  0  0  0  0  0  0  0
   15.8993   12.3839   39.0926 H   0  0  0  0  0  0  0  0  0  0  0  0
   14.2907   13.1834   39.0926 H   0  0  0  0  0  0  0  0  0  0  0  0
  1  2  1  0
  2  3  2  0
  3  4  1  0
  4  5  1  0
  5  6  2  0
  6  7  1  0
  7  8  2  0
  8  9  1  0
  9 10  1  0
 10 11  2  0
 10 12  1  0
  8 13  1  0
 13 14  2  0
  3 15  1  0
 15 16  2  0
 16 17  1  0
 17 18  1  0
 17  2  1  0
 14  5  1  0
  1 19  1  0
  1 20  1  0
  1 21  1  0
  4 22  1  0
  7 23  1  0
  9 24  1  0
  9 25  1  0
 13 26  1  0
 15 27  1  0
 18 28  1  0
 18 29  1  0
 18 30  1  0
M  CHG  1  12  -1
M  END
>  <meeko>  (187) 
{"is_sidechain": false}

>  <vina_energy>  (187) 
-7.60

$$$$

     RDKit          3D

 33 34  0  0  0  0  0  0  0  0999 V2000
   14.6750   12.5830   40.0440 C   0  0  0  0  0  0  0  0  0  0  0  0
   15.4370   11.7230   40.9790 C   0  0  0  0  0  0  0  0  0  0  0  0
   15.1450   10.5060   41.5610 C   0  0  0  0  0  0  0  0  0  0  0  0
   14.0080    9.8110   41.3680 N   0  0  0  0  0  0  0  0  0  0  0  0
   13.2950    8.9550   42.2110 C   0  0  0  0  0  0  0  0  0  0  0  0
   12.8640    9.3520   43.4170 N   0  0  0  0  0  0  0  0  0  0  0  0
   12.1870    8.4490   44.1600 C   0  0  0  0  0  0  0  0  0  0  0  0
   11.8920    7.1750   43.7300 C   0  0  0  0  0  0  0  0  0  0  0  0
   11.1020    6.1960   44.5480 C   0  0  0  0  0  0  0  0  0  0  0  0
    9.6360    6.5710   44.7040 C   0  0  0  0  0  0  0  0  0  0  0  0
    9.2670    7.2810   46.0070 C   0  0  0  0  0  0  0  0  0  0  0  0
    8.0350    7.4320   46.2310 O   0  0  0  0  0  0  0  0  0  0  0  0
   10.2600    7.6150   46.7120 O   0  0  0  0  0  0  0  0  0  0  0  0
   12.3890    6.8660   42.4850 C   0  0  0  0  0  0  0  0  0  0  0  0
   13.0800    7.7260   41.7090 N   0  0  0  0  0  0  0  0  0  0  0  0
   16.2680   10.1990   42.3560 C   0  0  0  0  0  0  0  0  0  0  0  0
   17.2070   11.1490   42.2970 N   0  0  0  0  0  0  0  0  0  0  0  0
   16.6880   12.0510   41.4450 N   0  0  0  0  0  0  0  0  0  0  0  0
   17.4560   13.2310   41.1250 C   0  0  0  0  0  0  0  0  0  0  0  0
   14.0523   13.2858   40.6170 H   0  0  0  0  0  0  0  0  0  0  0  0
   15.3757   13.1465   39.4104 H   0  0  0  0  0  0  0  0  0  0  0  0
   14.0312   11.9553   39.4104 H   0  0  0  0  0  0  0  0  0  0  0  0
   13.5090    9.8300   40.4900 H   0  0  0  0  0  0  0  0  0  0  0  0
   11.8530    8.7486   45.1643 H   0  0  0  0  0  0  0  0  0  0  0  0
   11.1585    5.2113   44.0609 H   0  0  0  0  0  0  0  0  0  0  0  0
   11.5415    6.1917   45.5564 H   0  0  0  0  0  0  0  0  0  0  0  0
    9.3666    7.2351   43.8695 H   0  0  0  0  0  0  0  0  0  0  0  0
    9.0833    5.6200   44.7144 H   0  0  0  0  0  0  0  0  0  0  0  0
   12.2114    5.8520   42.0973 H   0  0  0  0  0  0  0  0  0  0  0  0
   16.3611    9.2821   42.9566 H   0  0  0  0  0  0  0  0  0  0  0  0
   17.7764   13.7233   42.0550 H   0  0  0  0  0  0  0  0  0  0  0  0
   18.3411   12.9444   40.5381 H   0  0  0  0  0  0  0  0  0  0  0  0
   16.8356   13.9243   40.5381 H   0  0  0  0  0  0  0  0  0  0  0  0
  1  2  1  0
  2  3  2  0
  3  4  1  0
  4  5  1  0
  5  6  2  0
  6  7  1  0
  7  8  2  0
  8  9  1  0
  9 10  1  0
 10 11  1  0
 11 12  2  0
 11 13  1  0
  8 14  1  0
 14 15  2  0
  3 16  1  0
 16 17  2  0
 17 18  1  0
 18 19  1  0
 18  2  1  0
 15  5  1  0
  1 20  1  0
  1 21  1  0
  1 22  1  0
  4 23  1  0
  7 24  1  0
  9 25  1  0
  9 26  1  0
 10 27  1  0
 10 28  1  0
 14 29  1  0
 16 30  1  0
 19 31  1  0
 19 32  1  0
 19 33  1  0
M  CHG  1  13  -1
M  END
>  <meeko>  (188) 
{"is_sidechain": false}

>  <vina_energy>  (188) 
-6.91

$$$$

     RDKit          3D

 36 37  0  0  0  0  0  0  0  0999 V2000
   16.1700   10.3880   42.1230 C   0  0  0  0  0  0  0  0  0  0  0  0
   15.6370   11.4080   41.1870 C   0  0  0  0  0  0  0  0  0  0  0  0
   14.4580   11.4800   40.4740 C   0  0  0  0  0  0  0  0  0  0  0  0
   13.4840   10.5500   40.4930 N   0  0  0  0  0  0  0  0  0  0  0  0
   13.2050    9.5240   41.3980 C   0  0  0  0  0  0  0  0  0  0  0  0
   13.2020    8.2900   40.8650 N   0  0  0  0  0  0  0  0  0  0  0  0
   12.9350    7.2650   41.7000 C   0  0  0  0  0  0  0  0  0  0  0  0
   12.6650    7.4160   43.0400 C   0  0  0  0  0  0  0  0  0  0  0  0
   12.3840    6.2580   43.9470 C   0  0  0  0  0  0  0  0  0  0  0  0
   10.8950    5.9000   43.9610 C   0  0  0  0  0  0  0  0  0  0  0  0
   10.2910    6.0020   45.3590 C   0  0  0  0  0  0  0  0  0  0  0  0
    9.4810    7.2690   45.6420 C   0  0  0  0  0  0  0  0  0  0  0  0
    9.8720    8.3200   45.0640 O   0  0  0  0  0  0  0  0  0  0  0  0
    8.5060    7.0970   46.4260 O   0  0  0  0  0  0  0  0  0  0  0  0
   12.7010    8.7170   43.4890 C   0  0  0  0  0  0  0  0  0  0  0  0
   12.9620    9.7750   42.6940 N   0  0  0  0  0  0  0  0  0  0  0  0
   14.5310   12.6970   39.7660 C   0  0  0  0  0  0  0  0  0  0  0  0
   15.6700   13.3560   40.0040 N   0  0  0  0  0  0  0  0  0  0  0  0
   16.3240   12.5530   40.8620 N   0  0  0  0  0  0  0  0  0  0  0  0
   17.6230   12.9570   41.3460 C   0  0  0  0  0  0  0  0  0  0  0  0
   15.9987   10.7158   43.1589 H   0  0  0  0  0  0  0  0  0  0  0  0
   15.6573    9.4299   41.9521 H   0  0  0  0  0  0  0  0  0  0  0  0
   17.2493   10.2619   41.9521 H   0  0  0  0  0  0  0  0  0  0  0  0
   12.7790   10.4980   39.7700 H   0  0  0  0  0  0  0  0  0  0  0  0
   12.9331    6.2467   41.2840 H   0  0  0  0  0  0  0  0  0  0  0  0
   12.9574    5.3857   43.6001 H   0  0  0  0  0  0  0  0  0  0  0  0
   12.6788    6.5418   44.9680 H   0  0  0  0  0  0  0  0  0  0  0  0
   10.3586    6.5891   43.2921 H   0  0  0  0  0  0  0  0  0  0  0  0
   10.7950    4.8573   43.6250 H   0  0  0  0  0  0  0  0  0  0  0  0
    9.6269    5.1371   45.5040 H   0  0  0  0  0  0  0  0  0  0  0  0
   11.1444    6.0310   46.0525 H   0  0  0  0  0  0  0  0  0  0  0  0
   12.5061    8.9041   44.5553 H   0  0  0  0  0  0  0  0  0  0  0  0
   13.7407   13.0629   39.0941 H   0  0  0  0  0  0  0  0  0  0  0  0
   17.6209   12.9564   42.4460 H   0  0  0  0  0  0  0  0  0  0  0  0
   18.3856   12.2536   40.9804 H   0  0  0  0  0  0  0  0  0  0  0  0
   17.8521   13.9688   40.9804 H   0  0  0  0  0  0  0  0  0  0  0  0
  1  2  1  0
  2  3  2  0
  3  4  1  0
  4  5  1  0
  5  6  2  0
  6  7  1  0
  7  8  2  0
  8  9  1  0
  9 10  1  0
 10 11  1  0
 11 12  1  0
 12 13  2  0
 12 14  1  0
  8 15  1  0
 15 16  2  0
  3 17  1  0
 17 18  2  0
 18 19  1  0
 19 20  1  0
 19  2  1  0
 16  5  1  0
  1 21  1  0
  1 22  1  0
  1 23  1  0
  4 24  1  0
  7 25  1  0
  9 26  1  0
  9 27  1  0
 10 28  1  0
 10 29  1  0
 11 30  1  0
 11 31  1  0
 15 32  1  0
 17 33  1  0
 20 34  1  0
 20 35  1  0
 20 36  1  0
M  CHG  1  14  -1
M  END
>  <meeko>  (189) 
{"is_sidechain": false}

>  <vina_energy>  (189) 
-6.69

$$$$

     RDKit          3D

 36 37  0  0  0  0  0  0  0  0999 V2000
   11.8890    4.8670   43.6210 C   0  0  0  0  0  0  0  0  0  0  0  0
   11.4670    6.2250   44.0470 C   0  0  0  0  0  0  0  0  0  0  0  0
   11.9920    7.4780   43.8010 C   0  0  0  0  0  0  0  0  0  0  0  0
   13.0870    7.7280   43.0560 N   0  0  0  0  0  0  0  0  0  0  0  0
   13.3990    8.7960   42.2170 C   0  0  0  0  0  0  0  0  0  0  0  0
   12.5550    9.2120   41.2600 N   0  0  0  0  0  0  0  0  0  0  0  0
   12.9350   10.2510   40.4930 C   0  0  0  0  0  0  0  0  0  0  0  0
   14.1380   10.9010   40.6340 C   0  0  0  0  0  0  0  0  0  0  0  0
   14.5560   12.0320   39.7600 C   0  0  0  0  0  0  0  0  0  0  0  0
   16.0190   12.0910   39.5400 N   0  0  0  0  0  0  0  0  0  0  0  0
   16.7310   13.2760   40.1950 C   0  0  0  0  0  0  0  0  0  0  0  0
   17.3100   12.8310   41.5610 C   0  0  0  0  0  0  0  0  0  0  0  0
   16.7710   13.5160   42.4920 O   0  0  0  0  0  0  0  0  0  0  0  0
   18.2010   11.9590   41.5500 O   0  0  0  0  0  0  0  0  0  0  0  0
   14.9370   10.4060   41.6420 C   0  0  0  0  0  0  0  0  0  0  0  0
   14.5950    9.3690   42.4300 N   0  0  0  0  0  0  0  0  0  0  0  0
   11.1430    8.3710   44.4860 C   0  0  0  0  0  0  0  0  0  0  0  0
   10.1500    7.7430   45.1210 N   0  0  0  0  0  0  0  0  0  0  0  0
   10.3630    6.4450   44.8370 N   0  0  0  0  0  0  0  0  0  0  0  0
    9.4600    5.4520   45.3710 C   0  0  0  0  0  0  0  0  0  0  0  0
   12.0815    4.2474   44.5092 H   0  0  0  0  0  0  0  0  0  0  0  0
   11.0914    4.4072   43.0190 H   0  0  0  0  0  0  0  0  0  0  0  0
   12.8068    4.9402   43.0190 H   0  0  0  0  0  0  0  0  0  0  0  0
   13.8700    7.0890   43.0450 H   0  0  0  0  0  0  0  0  0  0  0  0
   12.2448   10.5990   39.7103 H   0  0  0  0  0  0  0  0  0  0  0  0
   14.0602   11.9213   38.7843 H   0  0  0  0  0  0  0  0  0  0  0  0
   14.2648   12.9626   40.2690 H   0  0  0  0  0  0  0  0  0  0  0  0
   16.4070   11.3340   40.1590 H   0  0  0  0  0  0  0  0  0  0  0  0
   16.3430   11.9110   38.5900 H   0  0  0  0  0  0  0  0  0  0  0  0
   17.5480   13.6200   39.5437 H   0  0  0  0  0  0  0  0  0  0  0  0
   16.0164   14.0983   40.3469 H   0  0  0  0  0  0  0  0  0  0  0  0
   15.9117   10.8864   41.8129 H   0  0  0  0  0  0  0  0  0  0  0  0
   11.2827    9.4620   44.4963 H   0  0  0  0  0  0  0  0  0  0  0  0
    9.4887    5.4836   46.4702 H   0  0  0  0  0  0  0  0  0  0  0  0
    8.4373    5.6624   45.0247 H   0  0  0  0  0  0  0  0  0  0  0  0
    9.7663    4.4539   45.0247 H   0  0  0  0  0  0  0  0  0  0  0  0
  1  2  1  0
  2  3  2  0
  3  4  1  0
  4  5  1  0
  5  6  2  0
  6  7  1  0
  7  8  2  0
  8  9  1  0
  9 10  1  0
 10 11  1  0
 11 12  1  0
 12 13  2  0
 12 14  1  0
  8 15  1  0
 15 16  2  0
  3 17  1  0
 17 18  2  0
 18 19  1  0
 19 20  1  0
 19  2  1  0
 16  5  1  0
  1 21  1  0
  1 22  1  0
  1 23  1  0
  4 24  1  0
  7 25  1  0
  9 26  1  0
  9 27  1  0
 10 28  1  0
 10 29  1  0
 11 30  1  0
 11 31  1  0
 15 32  1  0
 17 33  1  0
 20 34  1  0
 20 35  1  0
 20 36  1  0
M  CHG  2  10   1  14  -1
M  END
>  <meeko>  (190) 
{"is_sidechain": false}

>  <vina_energy>  (190) 
-6.36

$$$$

     RDKit          3D

 34 35  0  0  0  0  0  0  0  0999 V2000
   14.8290   13.0000   39.6310 C   0  0  0  0  0  0  0  0  0  0  0  0
   15.6120   12.1400   40.5550 C   0  0  0  0  0  0  0  0  0  0  0  0
   15.3290   10.9240   41.1420 C   0  0  0  0  0  0  0  0  0  0  0  0
   14.1930   10.2240   40.9650 N   0  0  0  0  0  0  0  0  0  0  0  0
   13.6640    9.1320   41.6590 C   0  0  0  0  0  0  0  0  0  0  0  0
   13.0690    8.1120   41.0210 N   0  0  0  0  0  0  0  0  0  0  0  0
   12.6240    7.0880   41.7810 C   0  0  0  0  0  0  0  0  0  0  0  0
   12.7440    7.0380   43.1500 C   0  0  0  0  0  0  0  0  0  0  0  0
   12.2240    5.9070   43.9830 C   0  0  0  0  0  0  0  0  0  0  0  0
   10.7980    5.8940   43.9190 O   0  0  0  0  0  0  0  0  0  0  0  0
   10.1810    5.9860   45.2230 C   0  0  0  0  0  0  0  0  0  0  0  0
    9.4880    7.3410   45.5350 C   0  0  0  0  0  0  0  0  0  0  0  0
    8.4910    7.3190   46.3110 O   0  0  0  0  0  0  0  0  0  0  0  0
    9.9900    8.3280   44.9160 O   0  0  0  0  0  0  0  0  0  0  0  0
   13.3430    8.1440   43.7070 C   0  0  0  0  0  0  0  0  0  0  0  0
   13.8110    9.1900   42.9930 N   0  0  0  0  0  0  0  0  0  0  0  0
   16.4650   10.6180   41.9200 C   0  0  0  0  0  0  0  0  0  0  0  0
   17.4070   11.5630   41.8370 N   0  0  0  0  0  0  0  0  0  0  0  0
   16.8710   12.4670   40.9970 N   0  0  0  0  0  0  0  0  0  0  0  0
   17.6340   13.6470   40.6570 C   0  0  0  0  0  0  0  0  0  0  0  0
   14.2014   13.6893   40.2149 H   0  0  0  0  0  0  0  0  0  0  0  0
   15.5170   13.5784   38.9969 H   0  0  0  0  0  0  0  0  0  0  0  0
   14.1888   12.3691   38.9969 H   0  0  0  0  0  0  0  0  0  0  0  0
   13.5340   10.4490   40.2340 H   0  0  0  0  0  0  0  0  0  0  0  0
   12.1359    6.2426   41.2740 H   0  0  0  0  0  0  0  0  0  0  0  0
   12.6183    4.9550   43.5981 H   0  0  0  0  0  0  0  0  0  0  0  0
   12.5460    6.0381   45.0266 H   0  0  0  0  0  0  0  0  0  0  0  0
    9.4236    5.1918   45.2975 H   0  0  0  0  0  0  0  0  0  0  0  0
   10.9972    5.8862   45.9536 H   0  0  0  0  0  0  0  0  0  0  0  0
   13.4471    8.1783   44.8015 H   0  0  0  0  0  0  0  0  0  0  0  0
   16.5646    9.7055   42.5262 H   0  0  0  0  0  0  0  0  0  0  0  0
   17.9599   14.1511   41.5788 H   0  0  0  0  0  0  0  0  0  0  0  0
   18.5155   13.3562   40.0668 H   0  0  0  0  0  0  0  0  0  0  0  0
   17.0071   14.3315   40.0668 H   0  0  0  0  0  0  0  0  0  0  0  0
  1  2  1  0
  2  3  2  0
  3  4  1  0
  4  5  1  0
  5  6  2  0
  6  7  1  0
  7  8  2  0
  8  9  1  0
  9 10  1  0
 10 11  1  0
 11 12  1  0
 12 13  2  0
 12 14  1  0
  8 15  1  0
 15 16  2  0
  3 17  1  0
 17 18  2  0
 18 19  1  0
 19 20  1  0
 19  2  1  0
 16  5  1  0
  1 21  1  0
  1 22  1  0
  1 23  1  0
  4 24  1  0
  7 25  1  0
  9 26  1  0
  9 27  1  0
 11 28  1  0
 11 29  1  0
 15 30  1  0
 17 31  1  0
 20 32  1  0
 20 33  1  0
 20 34  1  0
M  CHG  1  14  -1
M  END
>  <meeko>  (191) 
{"is_sidechain": false}

>  <vina_energy>  (191) 
-6.37

$$$$

     RDKit          3D

 34 35  0  0  0  0  0  0  0  0999 V2000
   18.7010   14.5400   39.1500 C   0  0  0  0  0  0  0  0  0  0  0  0
   18.5530   14.7450   40.6120 C   0  0  0  0  0  0  0  0  0  0  0  0
   18.3050   13.8590   41.6400 C   0  0  0  0  0  0  0  0  0  0  0  0
   18.1340   12.5320   41.4950 N   0  0  0  0  0  0  0  0  0  0  0  0
   16.9910   11.7320   41.5630 C   0  0  0  0  0  0  0  0  0  0  0  0
   16.9510   10.6240   42.3210 N   0  0  0  0  0  0  0  0  0  0  0  0
   15.7940    9.9290   42.3190 C   0  0  0  0  0  0  0  0  0  0  0  0
   14.6840   10.2740   41.5820 C   0  0  0  0  0  0  0  0  0  0  0  0
   13.4280    9.4630   41.5880 C   0  0  0  0  0  0  0  0  0  0  0  0
   13.5520    8.0200   42.6890 S   0  0  0  0  0  0  0  0  0  0  0  0
   12.2480    8.4390   43.9040 C   0  0  0  0  0  0  0  0  0  0  0  0
   11.1880    7.3300   43.8620 C   0  0  0  0  0  0  0  0  0  0  0  0
    9.9860    7.7160   43.8650 O   0  0  0  0  0  0  0  0  0  0  0  0
   11.6440    6.1480   43.8700 O   0  0  0  0  0  0  0  0  0  0  0  0
   14.8250   11.4290   40.8460 C   0  0  0  0  0  0  0  0  0  0  0  0
   15.9630   12.1600   40.8140 N   0  0  0  0  0  0  0  0  0  0  0  0
   18.2820   14.6470   42.8080 C   0  0  0  0  0  0  0  0  0  0  0  0
   18.5030   15.9410   42.5520 N   0  0  0  0  0  0  0  0  0  0  0  0
   18.6460   15.9770   41.2130 N   0  0  0  0  0  0  0  0  0  0  0  0
   18.8930   17.2530   40.5870 C   0  0  0  0  0  0  0  0  0  0  0  0
   19.3358   13.6608   38.9654 H   0  0  0  0  0  0  0  0  0  0  0  0
   17.7103   14.3779   38.7003 H   0  0  0  0  0  0  0  0  0  0  0  0
   19.1667   15.4293   38.7003 H   0  0  0  0  0  0  0  0  0  0  0  0
   18.9010   11.9080   41.2800 H   0  0  0  0  0  0  0  0  0  0  0  0
   15.7343    9.0281   42.9474 H   0  0  0  0  0  0  0  0  0  0  0  0
   12.5969   10.0984   41.9279 H   0  0  0  0  0  0  0  0  0  0  0  0
   13.2565    9.0957   40.5654 H   0  0  0  0  0  0  0  0  0  0  0  0
   12.6832    8.5016   44.9123 H   0  0  0  0  0  0  0  0  0  0  0  0
   11.7948    9.4108   43.6588 H   0  0  0  0  0  0  0  0  0  0  0  0
   13.9665   11.7760   40.2522 H   0  0  0  0  0  0  0  0  0  0  0  0
   18.1027   14.2438   43.8156 H   0  0  0  0  0  0  0  0  0  0  0  0
   19.0413   18.0192   41.3622 H   0  0  0  0  0  0  0  0  0  0  0  0
   19.7948   17.1857   39.9607 H   0  0  0  0  0  0  0  0  0  0  0  0
   18.0312   17.5271   39.9607 H   0  0  0  0  0  0  0  0  0  0  0  0
  1  2  1  0
  2  3  2  0
  3  4  1  0
  4  5  1  0
  5  6  2  0
  6  7  1  0
  7  8  2  0
  8  9  1  0
  9 10  1  0
 10 11  1  0
 11 12  1  0
 12 13  2  0
 12 14  1  0
  8 15  1  0
 15 16  2  0
  3 17  1  0
 17 18  2  0
 18 19  1  0
 19 20  1  0
 19  2  1  0
 16  5  1  0
  1 21  1  0
  1 22  1  0
  1 23  1  0
  4 24  1  0
  7 25  1  0
  9 26  1  0
  9 27  1  0
 11 28  1  0
 11 29  1  0
 15 30  1  0
 17 31  1  0
 20 32  1  0
 20 33  1  0
 20 34  1  0
M  CHG  1  14  -1
M  END
>  <meeko>  (192) 
{"is_sidechain": false}

>  <vina_energy>  (192) 
-5.83

$$$$

     RDKit          3D

 35 36  0  0  0  0  0  0  0  0999 V2000
   16.4710   11.1690   42.0460 C   0  0  0  0  0  0  0  0  0  0  0  0
   15.1910   10.9010   41.3440 C   0  0  0  0  0  0  0  0  0  0  0  0
   14.1970    9.9700   41.5610 C   0  0  0  0  0  0  0  0  0  0  0  0
   14.2040    9.0430   42.5370 N   0  0  0  0  0  0  0  0  0  0  0  0
   13.2140    8.1680   42.9890 C   0  0  0  0  0  0  0  0  0  0  0  0
   11.9210    8.5320   43.0340 N   0  0  0  0  0  0  0  0  0  0  0  0
   11.0430    7.6150   43.4850 C   0  0  0  0  0  0  0  0  0  0  0  0
   11.3970    6.3510   43.8970 C   0  0  0  0  0  0  0  0  0  0  0  0
   10.4070    5.3390   44.3820 C   0  0  0  0  0  0  0  0  0  0  0  0
   10.0100    5.5870   45.8410 C   0  0  0  0  0  0  0  0  0  0  0  0
    8.8590    6.4380   45.9750 N   0  0  0  0  0  0  0  0  0  0  0  0
    8.9510    7.6490   46.4870 C   0  0  0  0  0  0  0  0  0  0  0  0
   10.0680    8.0050   46.9420 O   0  0  0  0  0  0  0  0  0  0  0  0
    7.8660    8.2760   46.4220 O   0  0  0  0  0  0  0  0  0  0  0  0
   12.7420    6.0740   43.8080 C   0  0  0  0  0  0  0  0  0  0  0  0
   13.6610    6.9580   43.3640 N   0  0  0  0  0  0  0  0  0  0  0  0
   13.2340   10.2210   40.5630 C   0  0  0  0  0  0  0  0  0  0  0  0
   13.5820   11.2360   39.7650 N   0  0  0  0  0  0  0  0  0  0  0  0
   14.7730   11.6260   40.2540 N   0  0  0  0  0  0  0  0  0  0  0  0
   15.4640   12.7240   39.6220 C   0  0  0  0  0  0  0  0  0  0  0  0
   16.3071   11.1347   43.1332 H   0  0  0  0  0  0  0  0  0  0  0  0
   17.2113   10.4064   41.7625 H   0  0  0  0  0  0  0  0  0  0  0  0
   16.8432   12.1645   41.7625 H   0  0  0  0  0  0  0  0  0  0  0  0
   15.0240    8.8630   43.1030 H   0  0  0  0  0  0  0  0  0  0  0  0
    9.9797    7.8936   43.5263 H   0  0  0  0  0  0  0  0  0  0  0  0
    9.5058    5.3925   43.7535 H   0  0  0  0  0  0  0  0  0  0  0  0
   10.8741    4.3451   44.3184 H   0  0  0  0  0  0  0  0  0  0  0  0
    9.7863    4.6187   46.3125 H   0  0  0  0  0  0  0  0  0  0  0  0
   10.8538    6.0971   46.3286 H   0  0  0  0  0  0  0  0  0  0  0  0
    7.9730    6.1730   45.5810 H   0  0  0  0  0  0  0  0  0  0  0  0
   13.0879    5.0762   44.1159 H   0  0  0  0  0  0  0  0  0  0  0  0
   12.3020    9.6471   40.4530 H   0  0  0  0  0  0  0  0  0  0  0  0
   15.8815   13.3874   40.3938 H   0  0  0  0  0  0  0  0  0  0  0  0
   16.2788   12.3324   38.9952 H   0  0  0  0  0  0  0  0  0  0  0  0
   14.7585   13.2892   38.9952 H   0  0  0  0  0  0  0  0  0  0  0  0
  1  2  1  0
  2  3  2  0
  3  4  1  0
  4  5  1  0
  5  6  2  0
  6  7  1  0
  7  8  2  0
  8  9  1  0
  9 10  1  0
 10 11  1  0
 11 12  1  0
 12 13  2  0
 12 14  1  0
  8 15  1  0
 15 16  2  0
  3 17  1  0
 17 18  2  0
 18 19  1  0
 19 20  1  0
 19  2  1  0
 16  5  1  0
  1 21  1  0
  1 22  1  0
  1 23  1  0
  4 24  1  0
  7 25  1  0
  9 26  1  0
  9 27  1  0
 10 28  1  0
 10 29  1  0
 11 30  1  0
 15 31  1  0
 17 32  1  0
 20 33  1  0
 20 34  1  0
 20 35  1  0
M  CHG  1  14  -1
M  END
>  <meeko>  (193) 
{"is_sidechain": false}

>  <vina_energy>  (193) 
-7.36

$$$$

     RDKit          3D

 38 40  0  0  0  0  0  0  0  0999 V2000
   20.8590   16.9910   40.8250 C   0  0  0  0  0  0  0  0  0  0  0  0
   19.9500   15.8280   41.0450 C   0  0  0  0  0  0  0  0  0  0  0  0
   19.9720   14.7410   40.1970 C   0  0  0  0  0  0  0  0  0  0  0  0
   19.1850   13.6600   40.3370 N   0  0  0  0  0  0  0  0  0  0  0  0
   18.3330   13.6510   41.3680 C   0  0  0  0  0  0  0  0  0  0  0  0
   17.4790   12.5720   41.6040 N   0  0  0  0  0  0  0  0  0  0  0  0
   16.2990   12.2380   41.0470 C   0  0  0  0  0  0  0  0  0  0  0  0
   15.5690   12.8780   40.0260 C   0  0  0  0  0  0  0  0  0  0  0  0
   14.4300   12.2410   39.7370 N   0  0  0  0  0  0  0  0  0  0  0  0
   14.4370   11.1890   40.5740 N   0  0  0  0  0  0  0  0  0  0  0  0
   13.3320   10.2590   40.5410 C   0  0  0  0  0  0  0  0  0  0  0  0
   15.5390   11.1380   41.3940 C   0  0  0  0  0  0  0  0  0  0  0  0
   15.7450   10.0650   42.3990 C   0  0  0  0  0  0  0  0  0  0  0  0
   18.2280   14.6600   42.2440 N   0  0  0  0  0  0  0  0  0  0  0  0
   19.0200   15.7430   42.0690 C   0  0  0  0  0  0  0  0  0  0  0  0
   18.8110   16.8030   43.0680 C   0  0  0  0  0  0  0  0  0  0  0  0
   17.8360   17.7990   42.8880 C   0  0  0  0  0  0  0  0  0  0  0  0
   17.6490   18.8010   43.8430 C   0  0  0  0  0  0  0  0  0  0  0  0
   18.4290   18.8210   44.9970 C   0  0  0  0  0  0  0  0  0  0  0  0
   19.3910   17.8340   45.2010 C   0  0  0  0  0  0  0  0  0  0  0  0
   19.5770   16.8320   44.2460 C   0  0  0  0  0  0  0  0  0  0  0  0
   21.1765   17.3972   41.7967 H   0  0  0  0  0  0  0  0  0  0  0  0
   21.7429   16.6634   40.2581 H   0  0  0  0  0  0  0  0  0  0  0  0
   20.3276   17.7696   40.2581 H   0  0  0  0  0  0  0  0  0  0  0  0
   20.6775   14.7594   39.3532 H   0  0  0  0  0  0  0  0  0  0  0  0
   17.9000   12.0100   42.3310 H   0  0  0  0  0  0  0  0  0  0  0  0
   15.8994   13.7988   39.5230 H   0  0  0  0  0  0  0  0  0  0  0  0
   13.0334   10.0077   41.5694 H   0  0  0  0  0  0  0  0  0  0  0  0
   12.4823   10.7177   40.0142 H   0  0  0  0  0  0  0  0  0  0  0  0
   13.6389    9.3434   40.0142 H   0  0  0  0  0  0  0  0  0  0  0  0
   15.6635   10.4895   43.4105 H   0  0  0  0  0  0  0  0  0  0  0  0
   14.9800    9.2859   42.2656 H   0  0  0  0  0  0  0  0  0  0  0  0
   16.7441    9.6246   42.2656 H   0  0  0  0  0  0  0  0  0  0  0  0
   17.2115   17.7894   41.9825 H   0  0  0  0  0  0  0  0  0  0  0  0
   16.8845   19.5757   43.6836 H   0  0  0  0  0  0  0  0  0  0  0  0
   18.2857   19.6142   45.7455 H   0  0  0  0  0  0  0  0  0  0  0  0
   20.0041   17.8439   46.1143 H   0  0  0  0  0  0  0  0  0  0  0  0
   20.3347   16.0535   44.4185 H   0  0  0  0  0  0  0  0  0  0  0  0
  1  2  1  0
  2  3  2  0
  3  4  1  0
  4  5  2  0
  5  6  1  0
  6  7  1  0
  7  8  1  0
  8  9  2  0
  9 10  1  0
 10 11  1  0
 10 12  1  0
 12 13  1  0
  5 14  1  0
 14 15  2  0
 15 16  1  0
 16 17  2  0
 17 18  1  0
 18 19  2  0
 19 20  1  0
 20 21  2  0
 15  2  1  0
 21 16  1  0
 12  7  2  0
  1 22  1  0
  1 23  1  0
  1 24  1  0
  3 25  1  0
  6 26  1  0
  8 27  1  0
 11 28  1  0
 11 29  1  0
 11 30  1  0
 13 31  1  0
 13 32  1  0
 13 33  1  0
 17 34  1  0
 18 35  1  0
 19 36  1  0
 20 37  1  0
 21 38  1  0
M  END
>  <meeko>  (194) 
{"is_sidechain": false}

>  <vina_energy>  (194) 
-5.40

$$$$
